Version 4
SHEET 1 2988 1480
WIRE 1584 944 1584 880
WIRE 1584 1104 1584 1024
WIRE 1824 880 1584 880
WIRE 1824 944 1824 880
WIRE 1824 1248 1824 1232
WIRE 1872 880 1824 880
WIRE 1968 1152 1952 1152
WIRE 1984 880 1952 880
WIRE 1984 1024 1952 1024
WIRE 1984 1024 1984 880
WIRE 2032 880 1984 880
WIRE 2064 1152 2048 1152
WIRE 2064 1168 2064 1152
WIRE 2064 1248 2064 1232
WIRE 2160 880 2096 880
WIRE 2160 960 2160 880
WIRE 2160 1088 1952 1088
WIRE 2160 1088 2160 1040
WIRE 2160 1152 2160 1088
WIRE 2160 1248 2160 1232
WIRE 2272 880 2160 880
WIRE 2272 1040 2272 880
WIRE 2272 1248 2272 1104
WIRE 2384 880 2272 880
WIRE 2384 1024 2384 880
WIRE 2384 1248 2384 1104
FLAG 2384 880 OUT
FLAG 2160 1248 0
FLAG 2272 1248 0
FLAG 2384 1248 0
FLAG 2064 1248 0
FLAG 1824 1248 0
FLAG 1584 1104 0
FLAG 1584 880 IN
SYMBOL LOAD2 2384 1024 R0
WINDOW 123 0 0 Left 0
WINDOW 39 0 0 Left 0
SYMATTR InstName I1
SYMATTR Value 0.7
SYMBOL IND 1856 896 R270
WINDOW 0 32 56 VTop 0
WINDOW 3 5 56 VBottom 0
SYMATTR InstName L1
SYMATTR Value 150µ
SYMATTR SpiceLine Rser=0.02 Rpar=5000
SYMBOL schottky 2032 896 R270
WINDOW 0 32 32 VTop 0
WINDOW 3 0 32 VBottom 0
SYMATTR InstName D1
SYMATTR Value MBRS130L
SYMBOL RES 2144 944 R0
SYMATTR InstName R1
SYMATTR Value 10.7K
SYMBOL RES 2144 1136 R0
SYMATTR InstName R2
SYMATTR Value 1.24K
SYMBOL RES 1952 1168 R270
WINDOW 0 32 56 VTop 0
WINDOW 3 0 56 VBottom 0
SYMATTR InstName R3
SYMATTR Value 1K
SYMBOL polcap 2256 1040 R0
SYMATTR InstName C1
SYMATTR Value 1000µ
SYMBOL CAP 2048 1168 R0
SYMATTR InstName C2
SYMATTR Value 1µ
SYMBOL VOLTAGE 1584 928 R0
SYMATTR InstName V1
SYMATTR Value 5
SYMBOL PowerProducts\\LT1071HV 1824 1088 R0
SYMATTR InstName U1
TEXT 2168 1280 Left 0 !.tran 30m startup
TEXT 2040 832 Bottom 0 ;LT1071HV - 2.5A High Efficiency Switching Regulator\nInput: 5V     Output: 12V @ 0.7A
TEXT 1408 1288 Left 0 ;Note:\n  If the simulation model is not found please update with the "Sync Release" command from the "Tools" menu.\n  It remains the customer's responsibility to verify proper and reliable operation in the actual application.\n  Component substitution and printed circuit board layout may significantly affect circuit performance or reliability\n  Contact your local sales representative for assistance. This circuit is distributed to customers only for use with LTC parts\n  Copyright © 2006 Linear Technology Inc. All rights reserved.
