Version 4
SHEET 1 3436 2244
WIRE 1056 1152 1056 1120
WIRE 1056 1248 1056 1232
WIRE 1296 1120 1056 1120
WIRE 1296 1136 1296 1120
WIRE 1296 1440 1296 1424
WIRE 1440 1344 1424 1344
WIRE 1456 1216 1424 1216
WIRE 1456 1216 1456 1120
WIRE 1504 1120 1456 1120
WIRE 1504 1152 1504 1120
WIRE 1504 1232 1504 1216
WIRE 1520 1344 1504 1344
WIRE 1552 1120 1504 1120
WIRE 1616 1344 1600 1344
WIRE 1664 1120 1632 1120
WIRE 1664 1136 1664 1120
WIRE 1664 1280 1424 1280
WIRE 1664 1280 1664 1216
WIRE 1664 1296 1664 1280
WIRE 1664 1392 1664 1376
WIRE 1776 1120 1664 1120
WIRE 1776 1152 1776 1120
WIRE 1776 1248 1776 1216
WIRE 1872 1120 1776 1120
WIRE 1872 1136 1872 1120
WIRE 1872 1248 1872 1216
FLAG 1056 1248 0
FLAG 1296 1440 0
FLAG 1504 1232 0
FLAG 1664 1392 0
FLAG 1872 1248 0
FLAG 1776 1248 0
FLAG 1616 1344 0
FLAG 1872 1120 OUT
FLAG 1056 1120 IN
SYMBOL ind 1536 1136 R270
WINDOW 0 32 56 VTop 0
WINDOW 3 5 56 VBottom 0
SYMATTR InstName L2
SYMATTR Value 68µ
SYMBOL schottky 1488 1216 M180
WINDOW 0 24 72 Left 0
WINDOW 3 24 0 Left 0
SYMATTR InstName D1
SYMATTR Value MBRS340
SYMATTR Description Diode
SYMATTR Type diode
SYMBOL voltage 1056 1136 R0
SYMATTR InstName V2
SYMATTR Value 25
SYMBOL res 1648 1120 R0
SYMATTR InstName R4
SYMATTR Value 2.74K
SYMBOL res 1648 1280 R0
SYMATTR InstName R5
SYMATTR Value 2.21K
SYMBOL cap 1504 1328 R90
WINDOW 0 0 32 VBottom 0
WINDOW 3 32 32 VTop 0
SYMATTR InstName C12
SYMATTR Value .022µ
SYMBOL cap 1760 1152 R0
SYMATTR InstName C13
SYMATTR Value 220µ
SYMATTR SpiceLine Rser=.05
SYMBOL res 1616 1328 R90
WINDOW 0 0 56 VBottom 0
WINDOW 3 32 56 VTop 0
SYMATTR InstName R1
SYMATTR Value 10K
SYMBOL PowerProducts\\LT1076HV 1296 1280 R0
SYMATTR InstName U1
SYMBOL current 1872 1136 R0
WINDOW 123 0 0 Left 0
WINDOW 39 0 0 Left 0
SYMATTR InstName I1
SYMATTR Value 1.5
TEXT 1488 1432 Left 0 !.tran 5m startup
TEXT 1376 1080 Bottom 0 ;LT1076HV - Step Down Switching Regulator\nInput: 25V      Output: 5V @ 1.5A
TEXT 896 1464 Left 0 ;Note:\n  If the simulation model is not found please update with the "Sync Release" command from the "Tools" menu.\n  It remains the customer's responsibility to verify proper and reliable operation in the actual application.\n  Component substitution and printed circuit board layout may significantly affect circuit performance or reliability\n  Contact your local sales representative for assistance. This circuit is distributed to customers only for use with LTC parts\n  Copyright © 2006 Linear Technology Inc. All rights reserved.
