Version 4
SHEET 1 1608 972
WIRE 64 16 32 16
WIRE 144 16 128 16
WIRE 176 16 144 16
WIRE 272 16 256 16
WIRE 352 16 336 16
WIRE 192 112 192 96
WIRE 48 128 32 128
WIRE 144 128 144 16
WIRE 144 128 128 128
WIRE 160 128 144 128
WIRE 352 144 352 16
WIRE 352 144 224 144
WIRE 736 144 352 144
WIRE 784 144 736 144
WIRE 160 160 144 160
WIRE 192 192 192 176
WIRE 576 224 464 224
WIRE 688 224 640 224
WIRE 736 224 736 144
WIRE 144 240 144 160
WIRE 240 240 144 240
WIRE 352 240 352 144
WIRE 352 240 320 240
WIRE 144 304 144 240
WIRE 192 304 144 304
WIRE 352 304 352 240
WIRE 352 304 256 304
WIRE 464 304 464 224
WIRE 528 304 464 304
WIRE 688 304 688 224
WIRE 688 304 608 304
WIRE 144 320 144 304
WIRE 464 400 464 304
WIRE 480 400 464 400
WIRE 576 400 544 400
WIRE 688 400 688 304
WIRE 688 400 656 400
WIRE 736 400 736 288
WIRE 736 400 688 400
WIRE 144 416 144 400
WIRE 144 416 64 416
WIRE 288 416 144 416
WIRE 736 416 736 400
WIRE 976 416 848 416
WIRE 1056 416 976 416
WIRE 1216 416 1136 416
WIRE 64 432 64 416
WIRE 288 432 288 416
WIRE 1216 432 1216 416
WIRE 1312 432 1312 416
WIRE 848 448 848 416
WIRE 976 448 976 416
WIRE 144 464 144 416
WIRE 528 496 528 480
WIRE 688 512 688 400
WIRE 688 512 560 512
WIRE 736 512 736 496
WIRE 64 528 64 512
WIRE 288 528 288 512
WIRE 288 528 192 528
WIRE 352 528 288 528
WIRE 464 528 464 400
WIRE 464 528 432 528
WIRE 496 528 464 528
WIRE 976 528 976 512
WIRE 1216 528 1216 512
WIRE 1312 528 1312 512
WIRE 288 544 288 528
WIRE 848 544 848 512
WIRE 848 544 560 544
WIRE 848 560 848 544
WIRE 144 576 144 560
WIRE 528 576 528 560
WIRE 288 640 288 624
WIRE 848 656 848 640
FLAG 32 128 0
FLAG 32 16 0
FLAG 1216 528 0
FLAG 1216 416 V+
FLAG 1312 528 0
FLAG 1312 416 V-
FLAG 192 96 V-
FLAG 192 192 V+
FLAG 64 528 0
FLAG 144 576 0
FLAG 848 656 0
FLAG 784 144 OUT
FLAG 976 528 0
FLAG 528 480 V+
FLAG 528 576 V-
FLAG 288 640 0
FLAG 736 512 0
SYMBOL LT1028 192 208 M180
SYMATTR InstName U1
SYMBOL diode 720 224 R0
SYMATTR InstName D1
SYMATTR Value 1N4148
SYMBOL diode 832 448 R0
SYMATTR InstName D2
SYMATTR Value 1N4148
SYMBOL res 144 112 R90
WINDOW 0 0 56 VBottom 2
WINDOW 3 32 56 VTop 2
SYMATTR InstName R1
SYMATTR Value 1K
SYMBOL res 272 0 R90
WINDOW 0 0 56 VBottom 2
WINDOW 3 32 56 VTop 2
SYMATTR InstName R2
SYMATTR Value 1K
SYMBOL cap 336 0 R90
WINDOW 0 0 32 VBottom 2
WINDOW 3 32 32 VTop 2
SYMATTR InstName C1
SYMATTR Value .047µ
SYMBOL res 128 304 R0
SYMATTR InstName R3
SYMATTR Value 2.4K
SYMBOL res 336 224 R90
WINDOW 0 0 56 VBottom 2
WINDOW 3 32 56 VTop 2
SYMATTR InstName R4
SYMATTR Value 5.6K
SYMBOL cap 256 288 R90
WINDOW 0 0 32 VBottom 2
WINDOW 3 32 32 VTop 2
SYMATTR InstName C2
SYMATTR Value 10p
SYMBOL res 624 288 R90
WINDOW 0 0 56 VBottom 2
WINDOW 3 32 56 VTop 2
SYMATTR InstName R5
SYMATTR Value 49.9K
SYMBOL res 448 512 R90
WINDOW 0 0 56 VBottom 2
WINDOW 3 32 56 VTop 2
SYMATTR InstName R6
SYMATTR Value 100K
SYMBOL cap 544 384 R90
WINDOW 0 0 32 VBottom 2
WINDOW 3 32 32 VTop 2
SYMATTR InstName C3
SYMATTR Value 15µ
SYMBOL njf 192 464 M0
WINDOW 0 4 0 Left 2
WINDOW 3 -61 96 Left 2
SYMATTR InstName J1
SYMATTR Value 2N4338
SYMBOL cap 128 0 R90
WINDOW 0 0 32 VBottom 2
WINDOW 3 32 32 VTop 2
SYMATTR InstName C4
SYMATTR Value .047µ
SYMBOL voltage 1216 416 R0
SYMATTR InstName V1
SYMATTR Value 15
SYMBOL voltage 1312 416 R0
SYMATTR InstName V2
SYMATTR Value -15
SYMBOL res 48 416 R0
SYMATTR InstName R7
SYMATTR Value 560
SYMBOL res 832 544 R0
SYMATTR InstName R10
SYMATTR Value 10K
SYMBOL res 1152 400 R90
WINDOW 0 0 56 VBottom 2
WINDOW 3 32 56 VTop 2
SYMATTR InstName R11
SYMATTR Value 4.7K
SYMBOL LT1634-1.25 976 480 R0
SYMATTR InstName U3
SYMBOL LT1055 528 464 M0
WINDOW 0 -25 19 Right 2
WINDOW 3 -25 109 Right 2
SYMATTR InstName U4
SYMBOL res 272 416 R0
SYMATTR InstName R9
SYMATTR Value 10K
SYMBOL res 272 528 R0
SYMATTR InstName R12
SYMATTR Value 10K
SYMBOL res 672 384 R90
WINDOW 0 0 56 VBottom 2
WINDOW 3 32 56 VTop 2
SYMATTR InstName R13
SYMATTR Value 500
SYMBOL cap 640 208 R90
WINDOW 0 0 32 VBottom 2
WINDOW 3 32 32 VTop 2
SYMATTR InstName C5
SYMATTR Value 4.7µ
SYMBOL res 720 400 R0
SYMATTR InstName R8
SYMATTR Value 10K
TEXT 1096 592 Left 2 !.tran .3 startup
TEXT 800 104 Bottom 2 ;LT1028 - Ultra Low Noise Precision High Speed Op Amps\nLT1055 - Precision, High Speed, JFET Input Operational Amplifiers\nLT1634 - µPower Precision Shunt Voltage Reference\nSuper Low Distortion Variable Sine Wave Oscillator
TEXT -24 672 Left 2 ;Note:\n  If the simulation model is not found please update with the "Sync Release" command from the "Tools" menu.\n  It remains the customer's responsibility to verify proper and reliable operation in the actual application.\n  Component substitution and printed circuit board layout may significantly affect circuit performance or reliability\n  Contact your local sales representative for assistance. This circuit is distributed to customers only for use with LTC parts\n  Copyright © 2014 Linear Technology Inc. All rights reserved.
