Version 4
SHEET 1 2996 1496
WIRE 1584 928 1584 880
WIRE 1584 1056 1584 1008
WIRE 1824 880 1584 880
WIRE 1824 944 1824 880
WIRE 1824 1248 1824 1232
WIRE 1888 880 1824 880
WIRE 1968 1152 1952 1152
WIRE 2016 880 1968 880
WIRE 2016 1024 1952 1024
WIRE 2016 1024 2016 880
WIRE 2064 880 2016 880
WIRE 2064 1152 2048 1152
WIRE 2064 1168 2064 1152
WIRE 2064 1248 2064 1232
WIRE 2176 880 2128 880
WIRE 2176 960 2176 880
WIRE 2176 1088 1952 1088
WIRE 2176 1088 2176 1040
WIRE 2176 1152 2176 1088
WIRE 2176 1248 2176 1232
WIRE 2304 880 2176 880
WIRE 2304 1072 2304 880
WIRE 2304 1248 2304 1136
WIRE 2448 880 2304 880
WIRE 2448 1072 2448 880
WIRE 2448 1248 2448 1152
FLAG 2448 880 OUT
FLAG 2176 1248 0
FLAG 2304 1248 0
FLAG 2448 1248 0
FLAG 2064 1248 0
FLAG 1824 1248 0
FLAG 1584 1056 0
FLAG 1584 880 IN
SYMBOL LOAD2 2448 1072 R0
WINDOW 123 0 0 Left 0
WINDOW 39 0 0 Left 0
SYMATTR InstName I1
SYMATTR Value 0.35
SYMBOL ind 1872 896 R270
WINDOW 0 32 56 VTop 0
WINDOW 3 5 56 VBottom 0
SYMATTR InstName L1
SYMATTR Value 220µ
SYMBOL schottky 2064 896 R270
WINDOW 0 32 32 VTop 0
WINDOW 3 0 32 VBottom 0
SYMATTR InstName D1
SYMATTR Value 1N5819
SYMBOL RES 2160 944 R0
SYMATTR InstName R1
SYMATTR Value 10.7K
SYMBOL RES 2160 1136 R0
SYMATTR InstName R2
SYMATTR Value 1.24K
SYMBOL RES 1952 1168 R270
WINDOW 0 32 56 VTop 0
WINDOW 3 0 56 VBottom 0
SYMATTR InstName R3
SYMATTR Value 4.7K
SYMBOL polcap 2288 1072 R0
SYMATTR InstName C1
SYMATTR Value 470µ
SYMBOL CAP 2048 1168 R0
SYMATTR InstName C2
SYMATTR Value 0.1µ
SYMBOL VOLTAGE 1584 912 R0
SYMATTR InstName V1
SYMATTR Value 5
SYMBOL PowerProducts\\LT1072HV 1824 1088 R0
SYMATTR InstName U1
TEXT 2200 1288 Left 0 !.tran 10m startup
TEXT 2032 824 Bottom 0 ;LT1072HV - 1.25A High Efficiency Switching Regulator\nInput: 5V Output: 12V @ 350mA
TEXT 1440 1288 Left 0 ;Note:\n  If the simulation model is not found please update with the "Sync Release" command from the "Tools" menu.\n  It remains the customer's responsibility to verify proper and reliable operation in the actual application.\n  Component substitution and printed circuit board layout may significantly affect circuit performance or reliability\n  Contact your local sales representative for assistance. This circuit is distributed to customers only for use with LTC parts\n  Copyright © 2006 Linear Technology Inc. All rights reserved.
