Version 4
SHEET 1 2864 1520
WIRE 1488 896 1264 896
WIRE 1552 896 1488 896
WIRE 1856 896 1808 896
WIRE 1952 896 1856 896
WIRE 2048 896 1952 896
WIRE 1264 912 1264 896
WIRE 1488 912 1488 896
WIRE 1856 912 1856 896
WIRE 1952 912 1952 896
WIRE 2048 912 2048 896
WIRE 1264 1008 1264 992
WIRE 1488 1008 1488 976
WIRE 1952 1008 1952 976
WIRE 2048 1008 2048 992
WIRE 1680 1024 1680 992
WIRE 1856 1024 1856 992
WIRE 1856 1024 1680 1024
WIRE 1680 1040 1680 1024
WIRE 1856 1040 1856 1024
WIRE 1680 1136 1680 1104
WIRE 1856 1136 1856 1120
FLAG 2048 896 OUT
FLAG 1856 1136 0
FLAG 2048 1008 0
FLAG 1264 1008 0
FLAG 1952 1008 0
FLAG 1264 896 IN
FLAG 1488 1008 0
FLAG 1680 1136 0
SYMBOL RES 1840 896 R0
SYMATTR InstName R1
SYMATTR Value 121
SYMBOL RES 1840 1024 R0
SYMATTR InstName R2
SYMATTR Value 365
SYMBOL VOLTAGE 1264 896 R0
WINDOW 123 0 0 Left 2
SYMATTR InstName V1
SYMATTR Value PWL(0 0 1 25)
SYMATTR SpiceLine Rser=0.1
SYMBOL cap 1936 912 R0
SYMATTR InstName C1
SYMATTR Value 150µ
SYMBOL PowerProducts\\LT1086 1680 896 R0
SYMATTR InstName U1
SYMBOL cap 1472 912 R0
SYMATTR InstName C2
SYMATTR Value 10µ
SYMBOL cap 1664 1040 R0
SYMATTR InstName C3
SYMATTR Value 10µ
SYMBOL RES 2032 896 R0
SYMATTR InstName Rload
SYMATTR Value 3.3
TEXT 2008 1064 Left 2 !.tran 1
TEXT 1672 808 Bottom 2 ;LT1086 - 1.5A Adjustable Low Dropout Positive Regulators \n5V, 1.5A Regulator with Improved Ripple Rejection\nInput: 6.5V to 17V     Output: 5V @ 1.5A
TEXT 1072 1144 Left 2 ;Notes: \n  If the simulation model is not found please update with the "Sync Release" command from the "Tools" menu.\n  It remains the customer's responsibility to verify proper and reliable operation in the actual application.\n  Component substitution and printed circuit board layout may significantly affect circuit performance or reliability.\n  Contact your local sales representative for assistance. This circuit is distributed to customers only for use with LTC parts.\n  Copyright © 2012 Linear Technology Inc.  All rights reserved.
