Version 4
SHEET 1 1368 724
WIRE 144 80 144 64
WIRE 304 80 304 64
WIRE 64 144 -144 144
WIRE 80 144 64 144
WIRE 416 144 368 144
WIRE 432 144 416 144
WIRE 528 144 512 144
WIRE -144 160 -144 144
WIRE 416 192 416 144
WIRE 64 240 64 144
WIRE 80 240 64 240
WIRE -144 256 -144 240
WIRE 64 336 64 240
WIRE 80 336 64 336
WIRE 416 336 416 272
WIRE 416 336 368 336
WIRE 512 336 416 336
WIRE 416 352 416 336
WIRE 512 352 512 336
WIRE 416 448 416 416
WIRE 512 448 512 432
FLAG 304 64 0
FLAG -144 256 0
FLAG 416 448 0
FLAG 512 336 OUT
FLAG -144 144 IN
FLAG 512 448 0
FLAG 528 144 0
SYMBOL PowerProducts\\LT1175 224 240 R0
SYMATTR InstName U1
SYMBOL voltage -144 144 R0
WINDOW 123 0 0 Left 2
WINDOW 39 0 0 Left 2
SYMATTR InstName V1
SYMATTR Value PWL(0 0 1 -12)
SYMBOL cap 400 352 R0
SYMATTR InstName C1
SYMATTR Value 1µ
SYMATTR SpiceLine Rser=1
SYMBOL res 400 176 R0
SYMATTR InstName R1
SYMATTR Value 121K
SYMBOL res 528 128 R90
WINDOW 0 0 56 VBottom 2
WINDOW 3 32 56 VTop 2
SYMATTR InstName R2
SYMATTR Value 383K
SYMBOL res 496 336 R0
SYMATTR InstName Rload
SYMATTR Value 10
TEXT 568 456 Left 2 !.tran 1
TEXT 224 40 Bottom 2 ;LT1175 - 500mA Negative Low Dropout µPower Regulator\nNegative Low Dropout Regulator with Current Limit\nInput: -6V to -17V     Output: -5 @ 500mA (800mA Current Limited)
TEXT -352 464 Left 2 ;Note:\n  If the simulation model is not found please update with the "Sync Release" command from the "Tools" menu.\n  It remains the customer's responsibility to verify proper and reliable operation in the actual application.\n  Component substitution and printed circuit board layout may significantly affect circuit performance or reliability\n  Contact your local sales representative for assistance. This circuit is distributed to customers only for use with LTC parts\n  Copyright © 2012 Linear Technology Inc. All rights reserved.
