Version 4
SHEET 1 1232 680
WIRE 0 192 -192 192
WIRE 32 192 0 192
WIRE 352 192 320 192
WIRE 416 192 352 192
WIRE 512 192 416 192
WIRE -192 208 -192 192
WIRE 416 208 416 192
WIRE 512 208 512 192
WIRE 0 288 0 192
WIRE 32 288 0 288
WIRE 352 288 352 192
WIRE 352 288 320 288
WIRE -192 304 -192 288
WIRE 416 304 416 272
WIRE 512 304 512 288
WIRE 176 384 176 352
FLAG -192 304 0
FLAG 176 384 0
FLAG 416 304 0
FLAG 512 304 0
FLAG 512 192 OUT
FLAG -192 192 IN
SYMBOL voltage -192 192 R0
SYMATTR Value PWL(0 0 1 30)
SYMATTR InstName V1
SYMBOL res 496 192 R0
SYMATTR InstName Rload
SYMATTR Value 100
SYMBOL cap 400 208 R0
SYMATTR InstName C1
SYMATTR Value 3.3µ
SYMATTR SpiceLine Rser=40m
SYMBOL PowerProducts\\LT1129-5 176 240 R0
SYMATTR InstName U1
TEXT 416 376 Left 2 !.tran 1
TEXT 168 136 Bottom 2 ;LT1129-5 - Micropower Low Dropout Regulators with Shutdown\n5V Regulator with Shutdown\nInput: 5.5V to 30V     Output: 5V @ 500mA
TEXT -424 392 Left 2 ;Note:\n  If the simulation model is not found please update with the "Sync Release" command from the "Tools" menu.\n  It remains the customer's responsibility to verify proper and reliable operation in the actual application.\n  Component substitution and printed circuit board layout may significantly affect circuit performance or reliability.\n  Contact your local sales representative for assistance. This circuit is distributed to customers only for use with LTC parts.\n  Copyright © 2012 Linear Technology Inc. All rights reserved.
