Version 4
SHEET 1 2988 1480
WIRE 1584 1024 1584 880
WIRE 1584 1248 1584 1104
WIRE 1824 880 1584 880
WIRE 1824 944 1824 880
WIRE 1824 1248 1824 1232
WIRE 1872 880 1824 880
WIRE 1968 1152 1952 1152
WIRE 1984 880 1952 880
WIRE 1984 1024 1952 1024
WIRE 1984 1024 1984 880
WIRE 2032 880 1984 880
WIRE 2064 1152 2048 1152
WIRE 2064 1168 2064 1152
WIRE 2064 1248 2064 1232
WIRE 2160 880 2096 880
WIRE 2160 928 2160 880
WIRE 2160 1088 1952 1088
WIRE 2160 1088 2160 1008
WIRE 2160 1152 2160 1088
WIRE 2160 1248 2160 1232
WIRE 2272 880 2160 880
WIRE 2272 1024 2272 880
WIRE 2272 1248 2272 1088
WIRE 2368 880 2272 880
WIRE 2368 1008 2368 880
WIRE 2368 1248 2368 1088
FLAG 2368 880 OUT
FLAG 2160 1248 0
FLAG 2272 1248 0
FLAG 2368 1248 0
FLAG 2064 1248 0
FLAG 1824 1248 0
FLAG 1584 1248 0
FLAG 1584 880 IN
SYMBOL ind 1856 896 R270
WINDOW 0 32 56 VTop 0
WINDOW 3 5 56 VBottom 0
SYMATTR InstName L1
SYMATTR Value 100µ
SYMBOL schottky 2032 896 R270
WINDOW 0 32 32 VTop 0
WINDOW 3 0 32 VBottom 0
SYMATTR InstName D1
SYMATTR Value MBRS340
SYMBOL RES 2144 912 R0
SYMATTR InstName R1
SYMATTR Value 10.7K
SYMBOL RES 2144 1136 R0
SYMATTR InstName R2
SYMATTR Value 1.24K
SYMBOL RES 1952 1168 R270
WINDOW 0 32 56 VTop 0
WINDOW 3 0 56 VBottom 0
SYMATTR InstName R3
SYMATTR Value 3.3K
SYMBOL polcap 2256 1024 R0
SYMATTR InstName C1
SYMATTR Value 220µ
SYMATTR SpiceLine Rser=0.05
SYMBOL CAP 2048 1168 R0
SYMATTR InstName C2
SYMATTR Value 0.22µ
SYMBOL VOLTAGE 1584 1008 R0
WINDOW 123 0 0 Left 0
SYMATTR InstName V1
SYMATTR Value 5
SYMBOL PowerProducts\\LT1172HV 1824 1088 R0
SYMATTR InstName U1
SYMBOL current 2368 1008 R0
WINDOW 123 0 0 Left 0
WINDOW 39 24 116 Left 0
SYMATTR SpiceLine load
SYMATTR InstName I1
SYMATTR Value 0.3
TEXT 2176 1288 Left 0 !.tran 6m startup
TEXT 1976 824 Bottom 0 ;LT1172HV - 100kHz, 1.25A High Efficiency Switching Regulator\nInput: 5V      Output: 12V @ 300mA
TEXT 1440 1296 Left 0 ;Note:\n  If the simulation model is not found please update with the "Sync Release" command from the "Tools" menu.\n  It remains the customer's responsibility to verify proper and reliable operation in the actual application.\n  Component substitution and printed circuit board layout may significantly affect circuit performance or reliability\n  Contact your local sales representative for assistance. This circuit is distributed to customers only for use with LTC parts\n  Copyright © 2006 Linear Technology Inc. All rights reserved.
