Version 4
SHEET 1 1272 680
WIRE 0 192 -272 192
WIRE 32 192 0 192
WIRE 368 192 320 192
WIRE 464 192 368 192
WIRE -272 208 -272 192
WIRE 464 208 464 192
WIRE 368 224 368 192
WIRE 0 288 0 192
WIRE 32 288 0 288
WIRE -272 304 -272 288
WIRE 368 304 368 288
WIRE 464 304 464 288
WIRE 176 384 176 352
FLAG -272 304 0
FLAG 176 384 0
FLAG 368 304 0
FLAG 464 304 0
FLAG 464 192 OUT
FLAG -272 192 IN
SYMBOL voltage -272 192 R0
WINDOW 3 16 99 Left 2
WINDOW 123 0 0 Left 2
WINDOW 39 0 0 Left 2
SYMATTR Value PWL(0 0 1 20)
SYMATTR InstName V1
SYMBOL res 448 192 R0
SYMATTR InstName Rload
SYMATTR Value 22
SYMBOL cap 352 224 R0
SYMATTR InstName C1
SYMATTR Value 1µ
SYMBOL PowerProducts\\LT1121-3.3 176 240 R0
SYMATTR InstName U1
TEXT 400 368 Left 2 !.tran 1
TEXT 176 136 Bottom 2 ;LT1121-3.3 - µPower Low Dropout Regulators with Shutdown\n5V Battery-Powered Supply with Shutdown\nInput: 3.7V to 20V     Output: 3.3 @ 150mA
TEXT -440 400 Left 2 ;Note:\n  If the simulation model is not found please update with the "Sync Release" command from the "Tools" menu.\n  It remains the customer's responsibility to verify proper and reliable operation in the actual application.\n  Component substitution and printed circuit board layout may significantly affect circuit performance or reliability.\n  Contact your local sales representative for assistance. This circuit is distributed to customers only for use with LTC parts.\n  Copyright © 2012 Linear Technology Inc. All rights reserved.
