Version 4
SHEET 1 1432 680
WIRE 16 64 16 48
WIRE 400 64 400 48
WIRE 224 96 224 48
WIRE -128 160 -128 144
WIRE -32 160 -32 144
WIRE 16 160 16 144
WIRE 96 160 16 160
WIRE 400 160 400 144
WIRE 400 160 352 160
WIRE 528 160 528 128
WIRE 640 160 640 128
WIRE 400 176 400 160
WIRE -128 272 -128 240
WIRE -32 272 -32 224
WIRE -32 272 -128 272
WIRE 96 272 -32 272
WIRE 400 272 400 256
WIRE 400 272 352 272
WIRE 528 272 528 224
WIRE 528 272 400 272
WIRE 640 272 640 240
WIRE 640 272 528 272
FLAG 16 48 0
FLAG 400 48 0
FLAG 224 48 0
FLAG -128 144 0
FLAG 528 128 0
FLAG -128 272 IN
FLAG 640 272 OUT
FLAG 640 128 0
FLAG -32 144 0
SYMBOL PowerProducts\\LT1185 224 208 R0
SYMATTR InstName U1
SYMBOL res 0 48 R0
SYMATTR InstName R1
SYMATTR Value 4.32K
SYMBOL res 384 48 R0
SYMATTR InstName R2
SYMATTR Value 2.37K
SYMBOL res 384 160 R0
SYMATTR InstName R3
SYMATTR Value 2.67K
SYMBOL voltage -128 144 R0
SYMATTR InstName V1
SYMATTR Value 7.5
SYMBOL cap 512 160 R0
WINDOW 39 23 82 Left 2
SYMATTR SpiceLine Rser=1
SYMATTR InstName C1
SYMATTR Value 2.2µ
SYMBOL res 624 144 R0
SYMATTR InstName R4
SYMATTR Value 1.7
SYMBOL cap -48 160 R0
WINDOW 39 24 77 Left 2
SYMATTR InstName C2
SYMATTR Value 2.2µ
TEXT 720 264 Left 2 !.tran 100u startup
TEXT 360 -56 Top 2 ;LT1185 - Low Dropout Regulator\nNegative Regulator with 3.5A Current Limit\nInput: 6V to 16V     Output: -5V @ 3A
TEXT -264 296 Left 2 ;Note:\n  If the simulation model is not found please update with the "Sync Release" command from the "Tools" menu.\n  It remains the customer's responsibility to verify proper and reliable operation in the actual application.\n  Component substitution and printed circuit board layout may significantly affect circuit performance or reliability.\n  Contact your local sales representative for assistance. This circuit is distributed to customers only for use with LTC parts.\n  Copyright © 2012 Linear Technology Inc. All rights reserved.
