Version 4
SHEET 1 1512 680
WIRE 688 80 688 64
WIRE 688 80 672 80
WIRE 704 80 688 80
WIRE 672 96 672 80
WIRE 688 96 688 80
WIRE 704 96 704 80
WIRE 416 128 48 128
WIRE 544 128 416 128
WIRE 656 128 544 128
WIRE 800 128 736 128
WIRE 544 144 544 128
WIRE 48 160 48 128
WIRE 416 160 416 128
WIRE 656 160 624 160
WIRE 800 160 736 160
WIRE 688 208 688 192
WIRE 416 240 416 224
WIRE 544 240 544 224
WIRE 48 256 48 240
WIRE 688 304 688 288
FLAG 48 256 0
FLAG 416 240 0
FLAG 688 64 0
FLAG 800 160 Q
FLAG 688 304 0
FLAG 544 240 0
FLAG 624 160 0
FLAG 48 128 IN
SYMBOL voltage 48 144 R0
WINDOW 123 0 0 Left 2
WINDOW 39 24 124 Left 2
SYMATTR SpiceLine Rser=50
SYMATTR InstName V1
SYMATTR Value SINE(0 1 10Meg 1u 0 0 10)
SYMBOL schottky 400 224 M180
WINDOW 0 24 64 Left 2
WINDOW 3 24 0 Left 2
SYMATTR InstName D1
SYMATTR Value 1N5817
SYMATTR Description Diode
SYMATTR Type diode
SYMBOL res 528 128 R0
SYMATTR InstName R1
SYMATTR Value 50
SYMBOL voltage 688 192 R0
WINDOW 123 0 0 Left 2
WINDOW 39 0 0 Left 2
SYMATTR InstName V2
SYMATTR Value 5
SYMBOL LT1116 688 208 M180
WINDOW 0 25 29 Left 2
SYMATTR InstName U1
TEXT 784 312 Left 2 !.tran 3u
TEXT 424 64 Bottom 2 ;LT1116 - 12ns, Single Supply Ground-Sensing Comparator\nZero Crossing Detector
TEXT -160 328 Left 2 ;Note:\n  If the simulation model is not found please update with the "Sync Release" command from the "Tools" menu.\n  It remains the customer's responsibility to verify proper and reliable operation in the actual application.\n  Component substitution and printed circuit board layout may significantly affect circuit performance or reliability\n  Contact your local sales representative for assistance. This circuit is distributed to customers only for use with LTC parts\n  Copyright © 2014 Linear Technology Inc. All rights reserved.
TEXT 800 128 Left 2 ;_Q
