Version 4
SHEET 1 1456 732
WIRE -80 -48 -176 -48
WIRE 0 -48 -80 -48
WIRE 80 -48 0 -48
WIRE 624 -48 80 -48
WIRE -176 -32 -176 -48
WIRE -80 -32 -80 -48
WIRE 0 -32 0 -48
WIRE 240 0 208 0
WIRE 368 0 304 0
WIRE 528 0 368 0
WIRE 528 16 528 0
WIRE 624 32 624 -48
WIRE 208 48 208 0
WIRE 368 48 368 0
WIRE -176 64 -176 48
WIRE -80 64 -80 32
WIRE 0 64 0 32
WIRE 80 112 80 -48
WIRE 112 112 80 112
WIRE 496 112 464 112
WIRE 576 112 496 112
WIRE -144 176 -176 176
WIRE 112 176 -64 176
WIRE 496 176 496 112
WIRE 496 176 464 176
WIRE 528 240 528 80
WIRE 528 240 464 240
WIRE 624 240 624 128
WIRE 624 240 528 240
WIRE 624 256 624 240
WIRE 528 304 528 240
WIRE 528 304 464 304
WIRE -112 368 -128 368
WIRE -32 368 -48 368
WIRE 0 368 -32 368
WIRE 112 368 80 368
WIRE 624 368 624 336
WIRE 624 368 464 368
WIRE 752 368 624 368
WIRE 752 384 752 368
WIRE 624 400 624 368
WIRE -32 432 -32 368
WIRE 112 432 -32 432
WIRE 480 432 464 432
WIRE 624 480 624 464
WIRE 752 480 752 464
WIRE 480 496 480 432
WIRE 480 496 464 496
WIRE 288 544 288 528
FLAG -176 64 0
FLAG 288 544 0
FLAG -176 176 0
FLAG 752 480 0
FLAG -128 368 0
FLAG -176 -48 IN
FLAG 752 368 OUT
FLAG 0 64 0
FLAG -80 64 0
FLAG 624 480 0
SYMBOL voltage -176 -48 R0
WINDOW 123 0 0 Left 2
WINDOW 39 0 0 Left 2
SYMATTR InstName V1
SYMATTR Value 12
SYMBOL voltage -48 176 R90
WINDOW 0 -32 56 VBottom 2
WINDOW 3 32 56 VTop 2
WINDOW 123 0 0 Left 2
WINDOW 39 0 0 Left 2
SYMATTR InstName V2
SYMATTR Value PULSE(0 3.3 1.2 20n 20n .25 .5 4)
SYMBOL LT1158 288 288 R0
SYMATTR InstName U1
SYMBOL diode 240 16 R270
WINDOW 0 32 32 VTop 2
WINDOW 3 0 32 VBottom 2
SYMATTR InstName D1
SYMATTR Value 1N4148
SYMBOL nmos 576 32 R0
SYMATTR InstName Q1
SYMATTR Value IRF1010E
SYMBOL cap 512 80 M180
WINDOW 0 24 64 Left 2
WINDOW 3 24 8 Left 2
SYMATTR InstName C1
SYMATTR Value .1µ
SYMBOL res 608 240 R0
SYMATTR InstName R1
SYMATTR Value 30m
SYMBOL res 736 368 R0
SYMATTR InstName Rload
SYMATTR Value 4.6
SYMBOL cap -48 352 R90
WINDOW 0 0 32 VBottom 2
WINDOW 3 32 32 VTop 2
SYMATTR InstName C3
SYMATTR Value 10µ
SYMBOL cap -16 -32 R0
SYMATTR InstName C4
SYMATTR Value 10µ
SYMBOL cap -96 -32 R0
SYMATTR InstName C5
SYMATTR Value 1m
SYMBOL res 96 352 R90
WINDOW 0 0 56 VBottom 2
WINDOW 3 32 56 VTop 2
SYMATTR InstName R2
SYMATTR Value 6.2K
SYMBOL schottky 608 464 M180
WINDOW 0 24 64 Left 2
WINDOW 3 24 0 Left 2
SYMATTR InstName D2
SYMATTR Value B530C
SYMATTR Description Diode
SYMATTR Type diode
TEXT 576 520 Left 2 !.tran 3 startup
TEXT 264 -72 Bottom 2 ;LT1158 - Half Bridge N-Channel Power MOSFET Driver\nHigh Current Lamp Driver with Short-Circuit Protection
TEXT -328 576 Left 2 ;Notes:\n  If the simulation model is not found please update with the "Sync Release" command from the "Tools" menu.\n  It remains the customer's responsibility to verify proper and reliable operation in the actual application.\n  Component substitution and printed circuit board layout may significantly affect circuit performance or reliability.\n  Contact your local sales representative for assistance. This circuit is distributed to customers only for use with LTC parts.\n  Copyright © 2014 Linear Technology Inc. All rights reserved.
