Version 4
SHEET 1 5945676 13421556
WIRE 2176 -80 2016 -80
WIRE 2368 -80 2176 -80
WIRE 2592 -80 2368 -80
WIRE 2704 -80 2592 -80
WIRE 2832 -80 2704 -80
WIRE 2016 -64 2016 -80
WIRE 2592 -48 2592 -80
WIRE 2704 -48 2704 -80
WIRE 2176 -16 2176 -80
WIRE 2368 -16 2368 -80
WIRE 2832 -16 2832 -80
WIRE 2896 -16 2832 -16
WIRE 3056 -16 2960 -16
WIRE 3184 -16 3120 -16
WIRE 3232 -16 3184 -16
WIRE 3360 -16 3312 -16
WIRE 3456 -16 3360 -16
WIRE 3568 -16 3456 -16
WIRE 2896 0 2896 -16
WIRE 2960 0 2960 -16
WIRE 3184 0 3184 -16
WIRE 3360 0 3360 -16
WIRE 3456 0 3456 -16
WIRE 3568 0 3568 -16
WIRE 2016 32 2016 16
WIRE 2592 48 2592 16
WIRE 2704 48 2704 32
WIRE 2704 48 2592 48
WIRE 2704 80 2704 48
WIRE 2896 96 2896 80
WIRE 2896 96 2832 96
WIRE 2960 96 2960 80
WIRE 3184 96 3184 64
WIRE 3184 96 2960 96
WIRE 3360 96 3360 64
WIRE 3360 96 3184 96
WIRE 3456 96 3456 80
WIRE 3456 96 3360 96
WIRE 3568 96 3568 80
WIRE 3568 96 3456 96
WIRE 3568 112 3568 96
WIRE 2176 144 2176 64
WIRE 2224 144 2176 144
WIRE 2320 144 2288 144
WIRE 2704 160 2704 144
WIRE 2832 160 2832 96
WIRE 2832 160 2704 160
WIRE 1776 208 1680 208
WIRE 1840 208 1776 208
WIRE 1968 208 1904 208
WIRE 2048 208 1968 208
WIRE 2640 208 2128 208
WIRE 2896 208 2640 208
WIRE 1776 224 1776 208
WIRE 1968 224 1968 208
WIRE 2896 224 2896 208
WIRE 1680 240 1680 208
WIRE 2176 272 2176 144
WIRE 2400 272 2176 272
WIRE 2464 272 2400 272
WIRE 2560 272 2544 272
WIRE 2640 272 2640 208
WIRE 2640 272 2624 272
WIRE 2400 288 2400 272
WIRE 1776 320 1776 288
WIRE 1968 320 1968 288
WIRE 2896 320 2896 304
WIRE 2176 336 2176 272
WIRE 2704 352 2704 160
WIRE 2400 384 2400 352
WIRE 1680 400 1680 320
WIRE 2016 400 1680 400
WIRE 2464 432 2336 432
WIRE 2544 432 2464 432
WIRE 2656 432 2624 432
WIRE 2464 448 2464 432
WIRE 1680 464 1680 400
WIRE 1776 464 1680 464
WIRE 1904 464 1856 464
WIRE 2016 464 1968 464
WIRE 1680 480 1680 464
WIRE 1872 528 1760 528
WIRE 2016 528 1872 528
WIRE 2464 528 2464 512
WIRE 1760 544 1760 528
WIRE 1872 544 1872 528
WIRE 2368 560 2368 64
WIRE 2368 560 2336 560
WIRE 2544 560 2368 560
WIRE 2704 560 2704 448
WIRE 2704 560 2624 560
WIRE 1680 576 1680 560
WIRE 2704 576 2704 560
WIRE 2016 592 1968 592
WIRE 1872 624 1872 608
WIRE 1760 656 1760 624
WIRE 1968 656 1968 592
WIRE 1968 656 1760 656
WIRE 1760 672 1760 656
WIRE 2176 672 2176 656
WIRE 2704 672 2704 656
WIRE 1760 752 1760 736
FLAG 2704 672 0
FLAG 1760 752 0
FLAG 1872 624 0
FLAG 1680 576 0
FLAG 2176 672 0
FLAG 1776 320 0
FLAG 1968 320 0
FLAG 2400 384 0
FLAG 2896 320 0
FLAG 2016 32 0
FLAG 2320 144 0
FLAG 3568 -16 OUT
FLAG 3568 112 0
FLAG 2016 -80 IN
FLAG 2464 528 0
SYMBOL RES 2688 560 R0
SYMATTR InstName R1
SYMATTR Value .67
SYMBOL cap 1744 672 R0
SYMATTR InstName C1
SYMATTR Value 220p
SYMBOL cap 1856 544 R0
SYMATTR InstName C2
SYMATTR Value .1µ
SYMBOL cap 1968 448 R90
WINDOW 0 0 32 VBottom 2
WINDOW 3 32 32 VTop 2
SYMATTR InstName C3
SYMATTR Value .01µ
SYMBOL res 1872 448 R90
WINDOW 0 0 56 VBottom 2
WINDOW 3 32 56 VTop 2
SYMATTR InstName R2
SYMATTR Value 200K
SYMBOL res 1744 528 R0
SYMATTR InstName R3
SYMATTR Value 12K
SYMBOL res 1664 464 R0
SYMATTR InstName R4
SYMATTR Value 20K
SYMBOL res 2640 544 R90
WINDOW 0 0 56 VBottom 2
WINDOW 3 32 56 VTop 2
SYMATTR InstName R5
SYMATTR Value 1K
SYMBOL NMOS 2656 352 R0
SYMATTR InstName Q1
SYMATTR Value Si7802DN
SYMBOL res 2640 416 R90
WINDOW 0 0 56 VBottom 2
WINDOW 3 32 56 VTop 2
SYMATTR InstName R6
SYMATTR Value 12
SYMBOL res 1664 224 R0
SYMATTR InstName R7
SYMATTR Value 152K
SYMBOL cap 1760 224 R0
SYMATTR InstName C4
SYMATTR Value .22µ
SYMBOL cap 1952 224 R0
SYMATTR InstName C5
SYMATTR Value 100p
SYMBOL schottky 1904 192 R90
WINDOW 0 0 32 VBottom 2
WINDOW 3 32 32 VTop 2
SYMATTR InstName D1
SYMATTR Value BAT54
SYMBOL cap 2384 288 R0
SYMATTR InstName C6
SYMATTR Value 22µ
SYMBOL res 2560 256 R90
WINDOW 0 0 56 VBottom 2
WINDOW 3 32 56 VTop 2
SYMATTR InstName R8
SYMATTR Value 39
SYMBOL schottky 2624 256 R90
WINDOW 0 0 32 VBottom 2
WINDOW 3 32 32 VTop 2
SYMATTR InstName D2
SYMATTR Value BAT54
SYMBOL res 2352 -32 R0
SYMATTR InstName R9
SYMATTR Value 1.32Meg
SYMBOL res 2688 -64 R0
SYMATTR InstName R10
SYMATTR Value 27K
SYMBOL cap 2576 -48 R0
SYMATTR InstName C7
SYMATTR Value 470p
SYMBOL ind2 2976 -16 M0
WINDOW 0 1 32 Right 2
WINDOW 3 -1 70 Right 2
SYMATTR InstName L1
SYMATTR Value 16µ
SYMATTR SpiceLine Rser=.05 Rpar=2K
SYMBOL ind2 2880 208 R0
WINDOW 0 -4 44 Right 2
WINDOW 3 -6 73 Right 2
SYMATTR InstName L2
SYMATTR Value 18.8µ
SYMATTR Value2 Rser=.1
SYMBOL ind2 2880 96 M180
WINDOW 0 -2 87 Right 2
WINDOW 3 -3 43 Right 2
SYMATTR InstName L3
SYMATTR Value 100µ
SYMATTR SpiceLine Rser=.05 Rpar=5K
SYMBOL schottky 3056 -32 M90
WINDOW 0 0 32 VBottom 2
WINDOW 3 32 32 VTop 2
SYMATTR InstName D3
SYMATTR Value MBRS340
SYMBOL cap 3168 0 R0
SYMATTR InstName C8
SYMATTR Value 3.3µ
SYMATTR SpiceLine Rser=.1
SYMBOL ind 3216 0 R270
WINDOW 0 32 56 VTop 2
WINDOW 3 5 56 VBottom 2
SYMATTR InstName L4
SYMATTR Value 1µ
SYMBOL polcap 3344 0 R0
SYMATTR InstName C9
SYMATTR Value 3.3µ
SYMATTR SpiceLine Rser=.1
SYMBOL res 3440 -16 R0
SYMATTR InstName R11
SYMATTR Value 750
SYMBOL VOLTAGE 2016 -80 R0
WINDOW 123 0 0 Left 2
WINDOW 39 0 0 Left 2
SYMATTR InstName V1
SYMATTR Value 200
SYMBOL zener 2288 160 M270
WINDOW 0 36 32 VTop 2
WINDOW 3 -4 32 VBottom 2
SYMATTR InstName D4
SYMATTR Value BZX84C15L
SYMBOL diode 2688 144 M180
WINDOW 0 24 72 Left 2
WINDOW 3 24 0 Left 2
SYMATTR InstName D5
SYMATTR Value MURS320
SYMBOL res 2144 192 R90
WINDOW 0 0 56 VBottom 2
WINDOW 3 32 56 VTop 2
SYMATTR InstName R12
SYMATTR Value 510
SYMBOL res 2160 -32 R0
SYMATTR InstName R13
SYMATTR Value 400K
SYMBOL PowerProducts\\LT1241 2176 496 R0
SYMATTR InstName U1
SYMBOL res 3552 -16 R0
SYMATTR InstName Rload
SYMATTR Value 20
SYMBOL schottky 2448 512 M180
WINDOW 0 24 64 Left 2
WINDOW 3 24 0 Left 2
SYMATTR InstName D6
SYMATTR Value BAT54
SYMATTR Description Diode
SYMATTR Type diode
TEXT 2864 672 Left 2 !.tran 2m
TEXT 2936 -24 Bottom 2 !K1 L1 L2 L3 .98
TEXT 2568 -96 Bottom 2 ;LT1241 - High Speed Current Mode Pulse Width Modulators\n300kHz Off-Line Power Supply\n(Full-wave rectifier front end circuit not simulated)\nInput: 90VAC to 240VAC     Output: 20V @ 1.5A
TEXT 1912 696 Left 2 ;Note:\n  If the simulation model is not found please update with the "Sync Release" command from the "Tools" menu.\n  It remains the customer's responsibility to verify proper and reliable operation in the actual application.\n  Component substitution and printed circuit board layout may significantly affect circuit performance or reliability.\n  Contact your local sales representative for assistance. This circuit is distributed to customers only for use with LTC parts.\n  Copyright © 2012 Linear Technology Inc. All rights reserved.
LINE Normal 2928 304 2928 0 2
