Version 4
SHEET 1 5945676 13421556
WIRE 2176 -112 2000 -112
WIRE 2368 -112 2176 -112
WIRE 2592 -112 2368 -112
WIRE 2704 -112 2592 -112
WIRE 2800 -112 2704 -112
WIRE 2000 -80 2000 -112
WIRE 2176 -80 2176 -112
WIRE 2592 -80 2592 -112
WIRE 2704 -80 2704 -112
WIRE 2368 -48 2368 -112
WIRE 2800 -32 2800 -112
WIRE 2896 -32 2800 -32
WIRE 3056 -32 2960 -32
WIRE 3168 -32 3120 -32
WIRE 3216 -32 3168 -32
WIRE 3344 -32 3296 -32
WIRE 3472 -32 3344 -32
WIRE 3616 -32 3472 -32
WIRE 2896 -16 2896 -32
WIRE 2960 -16 2960 -32
WIRE 3168 -16 3168 -32
WIRE 3344 -16 3344 -32
WIRE 3472 -16 3472 -32
WIRE 3616 -16 3616 -32
WIRE 2592 16 2592 -16
WIRE 2704 16 2704 0
WIRE 2704 16 2592 16
WIRE 2000 32 2000 0
WIRE 2704 48 2704 16
WIRE 2896 80 2896 64
WIRE 2896 80 2800 80
WIRE 2960 80 2960 64
WIRE 3168 80 3168 48
WIRE 3168 80 2960 80
WIRE 3344 80 3344 48
WIRE 3344 80 3168 80
WIRE 3472 80 3472 64
WIRE 3472 80 3344 80
WIRE 3616 80 3616 64
WIRE 3616 80 3472 80
WIRE 2176 96 2176 0
WIRE 2224 96 2176 96
WIRE 2320 96 2288 96
WIRE 3616 112 3616 80
WIRE 2704 128 2704 112
WIRE 2800 128 2800 80
WIRE 2800 128 2704 128
WIRE 1744 208 1648 208
WIRE 1840 208 1744 208
WIRE 1968 208 1904 208
WIRE 2048 208 1968 208
WIRE 2640 208 2128 208
WIRE 2896 208 2640 208
WIRE 1744 224 1744 208
WIRE 1968 224 1968 208
WIRE 2896 224 2896 208
WIRE 1648 240 1648 208
WIRE 2176 272 2176 96
WIRE 2400 272 2176 272
WIRE 2464 272 2400 272
WIRE 2560 272 2544 272
WIRE 2640 272 2640 208
WIRE 2640 272 2624 272
WIRE 2400 288 2400 272
WIRE 1744 320 1744 288
WIRE 1968 320 1968 288
WIRE 2896 320 2896 304
WIRE 2176 336 2176 272
WIRE 2704 352 2704 128
WIRE 2400 384 2400 352
WIRE 1648 400 1648 320
WIRE 2016 400 1648 400
WIRE 2464 432 2336 432
WIRE 2656 432 2544 432
WIRE 1648 464 1648 400
WIRE 1776 464 1648 464
WIRE 1904 464 1856 464
WIRE 2016 464 1968 464
WIRE 1648 480 1648 464
WIRE 1872 528 1760 528
WIRE 2016 528 1872 528
WIRE 1760 544 1760 528
WIRE 1872 544 1872 528
WIRE 2368 560 2368 32
WIRE 2368 560 2336 560
WIRE 2480 560 2368 560
WIRE 2704 560 2704 448
WIRE 2704 560 2560 560
WIRE 1648 576 1648 560
WIRE 2368 576 2368 560
WIRE 2704 576 2704 560
WIRE 2016 592 1968 592
WIRE 1872 624 1872 608
WIRE 1760 656 1760 624
WIRE 1968 656 1968 592
WIRE 1968 656 1760 656
WIRE 2368 656 2368 640
WIRE 1760 672 1760 656
WIRE 2704 672 2704 656
WIRE 2176 704 2176 656
WIRE 1760 752 1760 736
FLAG 2704 672 0
FLAG 1760 752 0
FLAG 1872 624 0
FLAG 1648 576 0
FLAG 2176 704 0
FLAG 1744 320 0
FLAG 1968 320 0
FLAG 2400 384 0
FLAG 2896 320 0
FLAG 2000 32 0
FLAG 2320 96 0
FLAG 3616 -32 OUT
FLAG 3616 112 0
FLAG 2000 -112 IN
FLAG 2368 656 0
SYMBOL RES 2688 560 R0
SYMATTR InstName R1
SYMATTR Value .67
SYMBOL cap 1744 672 R0
SYMATTR InstName C1
SYMATTR Value 220p
SYMBOL cap 1856 544 R0
SYMATTR InstName C2
SYMATTR Value .1µ
SYMBOL cap 1968 448 R90
WINDOW 0 0 32 VBottom 2
WINDOW 3 32 32 VTop 2
SYMATTR InstName C3
SYMATTR Value .01µ
SYMBOL res 1872 448 R90
WINDOW 0 0 56 VBottom 2
WINDOW 3 32 56 VTop 2
SYMATTR InstName R2
SYMATTR Value 100K
SYMBOL res 1744 528 R0
SYMATTR InstName R3
SYMATTR Value 12K
SYMBOL res 1632 464 R0
SYMATTR InstName R4
SYMATTR Value 20K
SYMBOL res 2576 544 R90
WINDOW 0 0 56 VBottom 2
WINDOW 3 32 56 VTop 2
SYMATTR InstName R5
SYMATTR Value 1K
SYMBOL NMOS 2656 352 R0
SYMATTR InstName Q1
SYMATTR Value IRF7303
SYMBOL res 2560 416 R90
WINDOW 0 0 56 VBottom 2
WINDOW 3 32 56 VTop 2
SYMATTR InstName R6
SYMATTR Value 12
SYMBOL res 1632 224 R0
SYMATTR InstName R7
SYMATTR Value 152K
SYMBOL cap 1728 224 R0
SYMATTR InstName C4
SYMATTR Value .0022µ
SYMBOL cap 1952 224 R0
SYMATTR InstName C5
SYMATTR Value 100p
SYMBOL schottky 1904 192 R90
WINDOW 0 0 32 VBottom 2
WINDOW 3 32 32 VTop 2
SYMATTR InstName D1
SYMATTR Value BAT54
SYMBOL cap 2384 288 R0
SYMATTR InstName C6
SYMATTR Value 22µ
SYMBOL res 2560 256 R90
WINDOW 0 0 56 VBottom 2
WINDOW 3 32 56 VTop 2
SYMATTR InstName R8
SYMATTR Value 39
SYMBOL schottky 2624 256 R90
WINDOW 0 0 32 VBottom 2
WINDOW 3 32 32 VTop 2
SYMATTR InstName D2
SYMATTR Value BAT54
SYMBOL res 2352 -64 R0
SYMATTR InstName R9
SYMATTR Value 1.32Meg
SYMBOL res 2688 -96 R0
SYMATTR InstName R10
SYMATTR Value 660K
SYMBOL cap 2576 -80 R0
SYMATTR InstName C7
SYMATTR Value 470p
SYMBOL ind2 2976 -32 M0
WINDOW 0 1 32 Right 2
WINDOW 3 -2 69 Right 2
SYMATTR InstName L1
SYMATTR Value 16µ
SYMATTR SpiceLine Rser=.05
SYMBOL ind2 2880 208 R0
WINDOW 0 -3 43 Right 2
WINDOW 3 -4 70 Right 2
SYMATTR InstName L2
SYMATTR Value 18.8µ
SYMATTR Value2 Rser=.1
SYMBOL ind2 2880 80 M180
WINDOW 0 -2 79 Right 2
WINDOW 3 -2 44 Right 2
SYMATTR InstName L3
SYMATTR Value 100µ
SYMATTR SpiceLine Rser=.05
SYMBOL schottky 3056 -48 M90
WINDOW 0 0 32 VBottom 2
WINDOW 3 32 32 VTop 2
SYMATTR InstName D3
SYMATTR Value MBRS340
SYMBOL cap 3152 -16 R0
SYMATTR InstName C8
SYMATTR Value 10µ
SYMBOL ind 3200 -16 R270
WINDOW 0 32 56 VTop 2
WINDOW 3 5 56 VBottom 2
SYMATTR InstName L4
SYMATTR Value 1µ
SYMBOL polcap 3328 -16 R0
SYMATTR InstName C9
SYMATTR Value 3.3µ
SYMBOL res 3456 -32 R0
SYMATTR InstName R11
SYMATTR Value 750
SYMBOL VOLTAGE 2000 -96 R0
SYMATTR InstName V1
SYMATTR Value 200
SYMBOL zener 2288 112 M270
WINDOW 0 36 32 VTop 2
WINDOW 3 -4 32 VBottom 2
SYMATTR InstName D4
SYMATTR Value BZX84C15L
SYMBOL diode 2720 112 R180
WINDOW 0 24 72 Left 2
WINDOW 3 24 0 Left 2
SYMATTR InstName D5
SYMATTR Value MURS320
SYMBOL res 2144 192 R90
WINDOW 0 0 56 VBottom 2
WINDOW 3 32 56 VTop 2
SYMATTR InstName R12
SYMATTR Value 510
SYMBOL res 2160 -96 R0
SYMATTR InstName R13
SYMATTR Value 400K
SYMBOL PowerProducts\\LT1243 2176 496 R0
SYMATTR InstName U1
SYMBOL cap 2352 576 R0
SYMATTR InstName C10
SYMATTR Value 50p
SYMBOL res 3600 -32 R0
SYMATTR InstName Rload
SYMATTR Value 50
TEXT 2848 672 Left 2 !.tran .5m
TEXT 2856 -56 Left 2 !K1 L1 L2 L3 1
TEXT 2576 -120 Bottom 2 ;LT1243 - High Speed Current Mode Pulse Width Modulators\n300kHz Off-Line Power Supply\n(Full-wave rectifier front end circuit not simulated)\nInput: 90VAC to 240VAC (152VDC to 57VDC)     Output: 20V @ 1.5A
TEXT 1928 720 Left 2 ;Note:\n  If the simulation model is not found please update with the "Sync Release" command from the "Tools" menu.\n  It remains the customer's responsibility to verify proper and reliable operation in the actual application.\n  Component substitution and printed circuit board layout may significantly affect circuit performance or reliability.\n  Contact your local sales representative for assistance. This circuit is distributed to customers only for use with LTC parts.\n  Copyright © 2012 Linear Technology Inc. All rights reserved.
LINE Normal 2928 288 2928 -16 2
