Version 4
SHEET 1 5945676 13421556
WIRE 1888 -64 1776 -64
WIRE 2016 -64 1888 -64
WIRE 2368 -64 2016 -64
WIRE 2592 -64 2368 -64
WIRE 2704 -64 2592 -64
WIRE 2832 -64 2704 -64
WIRE 1776 -48 1776 -64
WIRE 2016 -48 2016 -64
WIRE 2592 -48 2592 -64
WIRE 2704 -48 2704 -64
WIRE 1888 -32 1888 -64
WIRE 2832 -16 2832 -64
WIRE 2896 -16 2832 -16
WIRE 3056 -16 2960 -16
WIRE 3168 -16 3120 -16
WIRE 3216 -16 3168 -16
WIRE 3344 -16 3296 -16
WIRE 3440 -16 3344 -16
WIRE 3552 -16 3440 -16
WIRE 2896 0 2896 -16
WIRE 2960 0 2960 -16
WIRE 3168 0 3168 -16
WIRE 3344 0 3344 -16
WIRE 3440 0 3440 -16
WIRE 3552 0 3552 -16
WIRE 1776 48 1776 32
WIRE 1888 48 1888 32
WIRE 2592 48 2592 16
WIRE 2704 48 2704 32
WIRE 2704 48 2592 48
WIRE 2368 64 2368 -64
WIRE 2704 64 2704 48
WIRE 2896 96 2896 80
WIRE 2896 96 2832 96
WIRE 2960 96 2960 80
WIRE 3168 96 3168 64
WIRE 3344 96 3344 64
WIRE 3440 96 3440 80
WIRE 3552 96 3552 80
WIRE 1904 112 1856 112
WIRE 2016 112 2016 32
WIRE 2016 112 1968 112
WIRE 2704 144 2704 128
WIRE 2832 144 2832 96
WIRE 2832 144 2704 144
WIRE 1616 208 1504 208
WIRE 1696 208 1616 208
WIRE 1808 208 1760 208
WIRE 1888 208 1808 208
WIRE 2640 208 1968 208
WIRE 2896 208 2640 208
WIRE 1616 224 1616 208
WIRE 1808 224 1808 208
WIRE 2896 224 2896 208
WIRE 1504 240 1504 208
WIRE 2016 272 2016 112
WIRE 2224 272 2016 272
WIRE 2400 272 2224 272
WIRE 2464 272 2400 272
WIRE 2560 272 2544 272
WIRE 2640 272 2640 208
WIRE 2640 272 2624 272
WIRE 2224 288 2224 272
WIRE 2400 288 2400 272
WIRE 1616 320 1616 288
WIRE 1808 320 1808 288
WIRE 2704 320 2704 144
WIRE 2896 320 2896 304
WIRE 2016 336 2016 272
WIRE 2224 384 2224 368
WIRE 2400 384 2400 352
WIRE 1504 400 1504 320
WIRE 1856 400 1504 400
WIRE 2496 400 2448 400
WIRE 2544 400 2496 400
WIRE 2656 400 2624 400
WIRE 2448 432 2448 400
WIRE 2448 432 2176 432
WIRE 2496 432 2496 400
WIRE 1504 464 1504 400
WIRE 1616 464 1504 464
WIRE 1744 464 1696 464
WIRE 1856 464 1808 464
WIRE 1504 480 1504 464
WIRE 2496 512 2496 496
WIRE 1712 528 1600 528
WIRE 1856 528 1712 528
WIRE 1600 544 1600 528
WIRE 1712 544 1712 528
WIRE 2368 560 2368 144
WIRE 2368 560 2176 560
WIRE 2544 560 2368 560
WIRE 2704 560 2704 416
WIRE 2704 560 2624 560
WIRE 1504 576 1504 560
WIRE 2704 576 2704 560
WIRE 1856 592 1808 592
WIRE 1712 624 1712 608
WIRE 1600 656 1600 624
WIRE 1808 656 1808 592
WIRE 1808 656 1600 656
WIRE 1600 672 1600 656
WIRE 2016 672 2016 656
WIRE 2704 672 2704 656
WIRE 1600 752 1600 736
FLAG 2704 672 0
FLAG 1600 752 0
FLAG 1712 624 0
FLAG 1504 576 0
FLAG 2016 672 0
FLAG 1616 320 0
FLAG 1808 320 0
FLAG 2400 384 0
FLAG 2896 320 0
FLAG 1776 48 0
FLAG 1856 112 0
FLAG 3552 -16 OUT
FLAG 1776 -64 IN
FLAG 2496 512 0
FLAG 1888 48 0
FLAG 2960 96 0
FLAG 3168 96 0
FLAG 3344 96 0
FLAG 3440 96 0
FLAG 3552 96 0
FLAG 2224 384 0
SYMBOL RES 2688 560 R0
SYMATTR InstName R1
SYMATTR Value .67
SYMBOL cap 1584 672 R0
SYMATTR InstName C1
SYMATTR Value 220p
SYMBOL cap 1696 544 R0
SYMATTR InstName C2
SYMATTR Value .1µ
SYMBOL cap 1808 448 R90
WINDOW 0 0 32 VBottom 0
WINDOW 3 32 32 VTop 0
SYMATTR InstName C3
SYMATTR Value .01µ
SYMBOL res 1712 448 R90
WINDOW 0 0 56 VBottom 0
WINDOW 3 32 56 VTop 0
SYMATTR InstName R2
SYMATTR Value 200K
SYMBOL res 1584 528 R0
SYMATTR InstName R3
SYMATTR Value 12K
SYMBOL res 1488 464 R0
SYMATTR InstName R4
SYMATTR Value 20K
SYMBOL res 2640 544 R90
WINDOW 0 0 56 VBottom 0
WINDOW 3 32 56 VTop 0
SYMATTR InstName R5
SYMATTR Value 1K
SYMBOL NMOS 2656 320 R0
SYMATTR InstName Q1
SYMATTR Value IRF7303
SYMBOL res 2640 384 R90
WINDOW 0 0 56 VBottom 0
WINDOW 3 32 56 VTop 0
SYMATTR InstName R6
SYMATTR Value 12
SYMBOL res 1488 224 R0
SYMATTR InstName R7
SYMATTR Value 152K
SYMBOL cap 1600 224 R0
SYMATTR InstName C4
SYMATTR Value .22µ
SYMBOL cap 1792 224 R0
SYMATTR InstName C5
SYMATTR Value 100p
SYMBOL schottky 1760 192 R90
WINDOW 0 0 32 VBottom 0
WINDOW 3 32 32 VTop 0
SYMATTR InstName D1
SYMATTR Value BAT54
SYMBOL cap 2384 288 R0
SYMATTR InstName C6
SYMATTR Value 22µ
SYMBOL res 2560 256 R90
WINDOW 0 0 56 VBottom 0
WINDOW 3 32 56 VTop 0
SYMATTR InstName R8
SYMATTR Value 39
SYMBOL schottky 2624 256 R90
WINDOW 0 0 32 VBottom 0
WINDOW 3 32 32 VTop 0
SYMATTR InstName D2
SYMATTR Value BAT54
SYMBOL res 2352 48 R0
SYMATTR InstName R9
SYMATTR Value 1.32Meg
SYMBOL res 2688 -64 R0
SYMATTR InstName R10
SYMATTR Value 27K
SYMBOL cap 2576 -48 R0
SYMATTR InstName C7
SYMATTR Value 470p
SYMBOL ind2 2976 -16 M0
WINDOW 0 -1 40 Right 0
WINDOW 3 0 65 Right 0
SYMATTR InstName L1
SYMATTR Value 16µ
SYMATTR SpiceLine Rser=.05
SYMBOL ind2 2880 208 R0
WINDOW 0 -6 46 Right 0
WINDOW 3 -5 72 Right 0
SYMATTR InstName L2
SYMATTR Value 18.8µ
SYMATTR SpiceLine Rser=.1
SYMBOL ind2 2880 96 M180
WINDOW 0 2 80 Right 0
WINDOW 3 1 42 Right 0
SYMATTR InstName L3
SYMATTR Value 100µ
SYMATTR SpiceLine Rser=.05
SYMBOL schottky 3056 -32 M90
WINDOW 0 0 32 VBottom 0
WINDOW 3 32 32 VTop 0
SYMATTR InstName D3
SYMATTR Value MBRS340
SYMBOL cap 3152 0 R0
SYMATTR InstName C8
SYMATTR Value 3.3µ
SYMBOL ind 3200 0 R270
WINDOW 0 32 56 VTop 0
WINDOW 3 5 56 VBottom 0
SYMATTR InstName L4
SYMATTR Value 1µ
SYMATTR SpiceLine Rpar=1K
SYMBOL polcap 3328 0 R0
SYMATTR InstName C9
SYMATTR Value 3.3µ
SYMBOL res 3424 -16 R0
SYMATTR InstName R11
SYMATTR Value 750
SYMBOL VOLTAGE 1776 -64 R0
WINDOW 123 0 0 Left 0
WINDOW 39 0 0 Left 0
SYMATTR InstName V1
SYMATTR Value 100
SYMBOL zener 1904 128 R270
WINDOW 0 36 32 VTop 0
WINDOW 3 -4 32 VBottom 0
SYMATTR InstName D4
SYMATTR Value BZX84C15L
SYMBOL diode 2688 128 M180
WINDOW 0 26 65 Left 0
WINDOW 3 24 0 Left 0
SYMATTR InstName D5
SYMATTR Value MURS320
SYMBOL res 1984 192 R90
WINDOW 0 0 56 VBottom 0
WINDOW 3 32 56 VTop 0
SYMATTR InstName R12
SYMATTR Value 510
SYMBOL res 2000 -64 R0
SYMATTR InstName R13
SYMATTR Value 400K
SYMBOL PowerProducts\\LT1245 2016 496 R0
SYMATTR InstName U1
SYMBOL res 3536 -16 R0
SYMATTR InstName Rload
SYMATTR Value 14
SYMBOL schottky 2480 496 M180
WINDOW 0 24 72 Left 0
WINDOW 3 24 0 Left 0
SYMATTR InstName D6
SYMATTR Value BAT54
SYMATTR Description Diode
SYMATTR Type diode
SYMBOL polcap 1872 -32 R0
WINDOW 3 24 64 Left 0
SYMATTR Value 100µ
SYMATTR InstName C11
SYMATTR Description Capacitor
SYMATTR Type cap
SYMBOL current 2224 368 M180
WINDOW 0 23 82 Left 0
WINDOW 3 39 45 Left 0
WINDOW 123 44 13 Left 0
WINDOW 39 38 -15 Left 0
SYMATTR InstName I1
SYMATTR Value pwl(0 0
SYMATTR Value2 5u 38
SYMATTR SpiceLine 10u 0)
TEXT 2928 568 Left 0 !.tran 1.5m startup
TEXT 2928 -24 Bottom 0 !K1 L1 L2 L3 1
TEXT 1832 744 Left 0 ;Notes:\n \n  I1 is used to quickly charge up C6 -- the real circuit needs about a second to startup\n \n  If the simulation model is not found please update with the "Sync Release" command from the "Tools" menu.\n  It remains the customer's responsibility to verify proper and reliable operation in the actual application.\n  Component substitution and printed circuit board layout may significantly affect circuit performance or reliability.\n  Contact your local sales representative for assistance. This circuit is distributed to customers only for use with LTC parts.\n  Copyright © 2011 Linear Technology Inc. All rights reserved.
TEXT 2600 -80 Bottom 0 ;LT1245 - High Speed Current Mode Pulse Width Modulators\n300kHz Off-Line Power Supply\nInput: 90VAC to 240VAC (152VDC to 57VDC)       Output: 20V @ 1.5A
LINE Normal 2928 304 2928 0 2
