Version 4
SHEET 1 1880 1024
WIRE 464 464 368 464
WIRE 688 464 464 464
WIRE 736 464 688 464
WIRE 864 464 816 464
WIRE 912 464 864 464
WIRE 1008 464 976 464
WIRE 1104 464 1008 464
WIRE 1200 464 1104 464
WIRE 1296 464 1200 464
WIRE 368 480 368 464
WIRE 1200 480 1200 464
WIRE 1296 480 1296 464
WIRE 464 496 464 464
WIRE 688 512 688 464
WIRE 1008 544 1008 464
WIRE 1104 544 1104 464
WIRE 368 576 368 560
WIRE 464 576 464 560
WIRE 1200 576 1200 544
WIRE 1296 576 1296 560
WIRE 864 592 864 464
WIRE 864 592 832 592
WIRE 544 608 528 608
WIRE 1008 656 1008 608
WIRE 1008 656 832 656
WIRE 1104 656 1104 624
WIRE 1104 656 1008 656
WIRE 1104 672 1104 656
WIRE 544 704 528 704
WIRE 848 720 832 720
WIRE 944 720 928 720
WIRE 1024 720 1008 720
WIRE 1104 768 1104 752
WIRE 608 816 608 800
WIRE 768 816 768 800
FLAG 1104 768 0
FLAG 1200 576 0
FLAG 1296 576 0
FLAG 768 816 0
FLAG 608 816 0
FLAG 1024 720 0
FLAG 368 576 0
FLAG 1296 464 OUT
FLAG 368 464 IN
FLAG 464 576 0
SYMBOL schottky 912 480 R270
WINDOW 0 32 32 VTop 2
WINDOW 3 0 32 VBottom 2
SYMATTR InstName D1
SYMATTR Value MBRS340
SYMBOL ind 720 480 R270
WINDOW 0 32 56 VTop 2
WINDOW 3 5 56 VBottom 2
SYMATTR InstName L1
SYMATTR Value 3.3µ
SYMATTR SpiceLine Ipk=3.5 Rser=0.02 Rpar=0 Cpar=0 mfg="Sumida" pn="CDRH6D38NP-3R3"
SYMBOL RES 832 736 R270
WINDOW 0 32 56 VTop 2
WINDOW 3 0 56 VBottom 2
SYMATTR InstName R1
SYMATTR Value 20K
SYMBOL RES 1088 528 R0
SYMATTR InstName R2
SYMATTR Value 866K
SYMBOL RES 1088 656 R0
SYMATTR InstName R3
SYMATTR Value 100K
SYMBOL CAP 944 736 R270
WINDOW 0 32 32 VTop 2
WINDOW 3 0 32 VBottom 2
SYMATTR InstName C3
SYMATTR Value .01µ
SYMBOL VOLTAGE 368 464 R0
WINDOW 123 0 0 Left 2
SYMATTR InstName V1
SYMATTR Value 2
SYMATTR SpiceLine Rser=0.1
SYMBOL POWERPRODUCTS\\LT1302 688 656 R0
SYMATTR InstName U1
SYMBOL RES 1280 464 R0
SYMATTR InstName Rload
SYMATTR Value 100
SYMBOL cap 448 496 R0
SYMATTR InstName C4
SYMATTR Value 100µ
SYMBOL cap 1184 480 R0
WINDOW 3 38 34 Left 2
WINDOW 40 24 60 Left 2
SYMATTR Value 33µ
SYMATTR SpiceLine2 x2
SYMATTR InstName C2
SYMATTR SpiceLine Rser=10m
SYMBOL cap 992 544 R0
SYMATTR InstName C1
SYMATTR Value 100p
TEXT 1112 816 Left 2 !.tran 15m startup
TEXT 840 416 Bottom 2 ;LT1302 - µPower High Output Current Step-Up DC/DC Converters\n12V Boost Converter for 2 Cell Batteries\nInput: 3V to 2V       Output: 12V @ 120mA
TEXT 224 832 Left 2 ;Note:\n  If the simulation model is not found please update with the "Sync Release" command from the "Tools" menu.\n  It remains the customer's responsibility to verify proper and reliable operation in the actual application.\n  Component substitution and printed circuit board layout may significantly affect circuit performance or reliability.\n  Contact your local sales representative for assistance. This circuit is distributed to customers only for use with LTC parts.\n  Copyright © 2012 Linear Technology Inc. All rights reserved.
