Version 4
SHEET 1 2868 1584
WIRE 1600 880 1488 880
WIRE 1824 880 1600 880
WIRE 1872 880 1824 880
WIRE 2000 880 1952 880
WIRE 2032 880 2000 880
WIRE 2128 880 2096 880
WIRE 2224 880 2128 880
WIRE 2320 880 2224 880
WIRE 1488 896 1488 880
WIRE 1600 896 1600 880
WIRE 2224 896 2224 880
WIRE 2320 896 2320 880
WIRE 1824 928 1824 880
WIRE 2128 976 2128 880
WIRE 1488 992 1488 976
WIRE 1600 992 1600 960
WIRE 2000 992 2000 880
WIRE 2000 992 1968 992
WIRE 2224 992 2224 960
WIRE 2320 992 2320 976
WIRE 2128 1072 2128 1056
WIRE 2128 1072 1968 1072
WIRE 2128 1088 2128 1072
WIRE 1520 1152 1504 1152
WIRE 1680 1152 1584 1152
WIRE 2128 1184 2128 1168
WIRE 1824 1232 1824 1216
FLAG 1488 992 0
FLAG 1600 992 0
FLAG 1824 1232 0
FLAG 2320 992 0
FLAG 2224 992 0
FLAG 2128 1184 0
FLAG 2320 880 OUT
FLAG 1488 880 IN
FLAG 1504 1152 0
SYMBOL VOLTAGE 1488 880 R0
SYMATTR InstName V1
SYMATTR Value 5
SYMATTR SpiceLine Rser=0.1
SYMBOL RES 2112 1072 R0
SYMATTR InstName R2
SYMATTR Value 6.19K
SYMBOL RES 2112 960 R0
SYMATTR InstName R3
SYMATTR Value 53.6K
SYMBOL schottky 2032 896 R270
WINDOW 0 32 32 VTop 0
WINDOW 3 0 32 VBottom 0
SYMATTR InstName D1
SYMATTR Value MBRS340
SYMBOL ind 1856 896 R270
WINDOW 0 32 56 VTop 0
WINDOW 3 5 56 VBottom 0
SYMATTR InstName L1
SYMATTR Value 4.7µ
SYMATTR SpiceLine Rser=0.02 Rpar=5000
SYMBOL RES 2304 880 R0
SYMATTR InstName Rload
SYMATTR Value 48
SYMBOL cap 1584 1136 R90
WINDOW 0 0 32 VBottom 0
WINDOW 3 32 32 VTop 0
WINDOW 39 60 32 VTop 0
SYMATTR InstName C3
SYMATTR Value .047µ
SYMATTR SpiceLine Rser=2K Cpar=.0047u
SYMBOL PowerProducts\\LT1377 1824 1072 R0
SYMATTR InstName U1
SYMBOL cap 2208 896 R0
SYMATTR InstName C2
SYMATTR Value 22µ
SYMBOL cap 1584 896 R0
SYMATTR InstName C1
SYMATTR Value 22µ
TEXT 2208 1216 Left 0 !.tran 1.5m startup
TEXT 1920 832 Bottom 0 ;LT1377 - 1MHz High Efficiency 1.5A Switching Regulators\n5V to 12V Boost Converter\nInput: 5V       Output: 12V @ .25A
TEXT 1296 1256 Left 0 ;Note:\n  If the simulation model is not found please update with the "Sync Release" command from the "Tools" menu.\n  It remains the customer's responsibility to verify proper and reliable operation in the actual application.\n  Component substitution and printed circuit board layout may significantly affect circuit performance or reliability.\n  Contact your local sales representative for assistance. This circuit is distributed to customers only for use with LTC parts.\n  Copyright © 2011 Linear Technology Inc. All rights reserved.
