Version 4
SHEET 1 2948 1568
WIRE 1536 960 1536 928
WIRE 1536 1088 1536 1040
WIRE 1664 1168 1632 1168
WIRE 1760 928 1536 928
WIRE 1760 976 1760 928
WIRE 1824 1312 1824 1296
WIRE 1888 976 1888 880
WIRE 2000 1040 1984 1040
WIRE 2000 1040 2000 976
WIRE 2000 1232 1984 1232
WIRE 2032 880 1888 880
WIRE 2032 896 2032 880
WIRE 2032 976 2000 976
WIRE 2032 976 2032 960
WIRE 2032 992 2032 976
WIRE 2032 1072 2032 1056
WIRE 2080 1232 2064 1232
WIRE 2112 880 2032 880
WIRE 2112 976 2032 976
WIRE 2176 1232 2160 1232
WIRE 2208 880 2176 880
WIRE 2208 976 2192 976
WIRE 2208 976 2208 880
WIRE 2208 1056 2208 976
WIRE 2208 1104 1984 1104
WIRE 2208 1104 2208 1056
WIRE 2240 1056 2208 1056
WIRE 2240 1072 2240 1056
WIRE 2240 1168 1984 1168
WIRE 2240 1168 2240 1152
WIRE 2240 1184 2240 1168
WIRE 2240 1280 2240 1264
WIRE 2352 1056 2240 1056
WIRE 2352 1136 2352 1056
WIRE 2352 1280 2352 1200
WIRE 2480 1056 2352 1056
WIRE 2480 1136 2480 1056
WIRE 2480 1280 2480 1216
FLAG 2176 1232 0
FLAG 1824 1312 0
FLAG 2240 1280 0
FLAG 2032 1072 0
FLAG 2352 1280 0
FLAG 1536 1088 0
FLAG 2480 1280 0
FLAG 2480 1056 OUT
FLAG 1536 928 IN
SYMBOL cap 2016 896 R0
SYMATTR InstName C1
SYMATTR Value .27u
SYMBOL ind 2096 992 R270
WINDOW 0 32 56 VTop 0
WINDOW 3 5 56 VBottom 0
SYMATTR InstName L1
SYMATTR Value 5u
SYMBOL RES 2224 1056 R0
SYMATTR InstName R1
SYMATTR Value 5.36K
SYMBOL res 2224 1280 M180
WINDOW 0 36 76 Left 0
WINDOW 3 36 40 Left 0
SYMATTR InstName R2
SYMATTR Value 4.99K
SYMBOL schottky 2016 1056 M180
WINDOW 0 37 52 Left 0
WINDOW 3 24 0 Left 0
SYMATTR InstName D1
SYMATTR Value MBR735
SYMBOL diode 2176 864 R90
WINDOW 0 0 32 VBottom 0
WINDOW 3 32 32 VTop 0
SYMATTR InstName D2
SYMATTR Value 1N914
SYMBOL VOLTAGE 1536 944 R0
SYMATTR InstName V1
SYMATTR Value 12
SYMBOL cap 2064 1216 R90
WINDOW 0 0 32 VBottom 0
WINDOW 3 32 32 VTop 0
SYMATTR InstName C2
SYMATTR Value 4700p
SYMBOL polcap 2336 1136 R0
SYMATTR InstName C3
SYMATTR Value 100u
SYMBOL res 2064 1248 R270
WINDOW 0 32 56 VTop 0
WINDOW 3 0 56 VBottom 0
SYMATTR InstName R3
SYMATTR Value 10K
SYMBOL PowerProducts\\LT1374HV 1824 1136 R0
SYMATTR InstName U1
SYMBOL res 2464 1120 R0
SYMATTR InstName R4
SYMATTR Value 1.33
TEXT 2288 1320 Left 0 !.tran 500u startup
TEXT 1896 856 Bottom 0 ;LT1374HV - 4.5A, 500kHz Step-Down Switching Regulator\nInput: 12V       Output: 5V @ 3.75A
TEXT 1448 1328 Left 0 ;Note:\n  If the simulation model is not found please update with the "Sync Release" command from the "Tools" menu.\n  It remains the customer's responsibility to verify proper and reliable operation in the actual application.\n  Component substitution and printed circuit board layout may significantly affect circuit performance or reliability\n  Contact your local sales representative for assistance. This circuit is distributed to customers only for use with LTC parts\n  Copyright © 2006 Linear Technology Inc. All rights reserved.
