Version 4
SHEET 1 1952 1024
WIRE 496 352 384 352
WIRE 688 352 496 352
WIRE 736 352 688 352
WIRE 848 352 816 352
WIRE 880 352 848 352
WIRE 976 352 944 352
WIRE 1024 352 976 352
WIRE 1136 352 1088 352
WIRE 1184 352 1136 352
WIRE 1280 352 1184 352
WIRE 384 368 384 352
WIRE 496 368 496 352
WIRE 688 368 688 352
WIRE 1184 368 1184 352
WIRE 1280 368 1280 352
WIRE 976 400 976 352
WIRE 384 464 384 448
WIRE 496 464 496 432
WIRE 608 464 592 464
WIRE 688 464 688 448
WIRE 688 464 672 464
WIRE 1184 464 1184 432
WIRE 1280 464 1280 448
WIRE 688 512 688 464
WIRE 976 512 976 480
WIRE 1136 544 1136 352
WIRE 848 592 848 352
WIRE 848 592 832 592
WIRE 544 608 528 608
WIRE 1136 656 1136 624
WIRE 1136 656 832 656
WIRE 1136 688 1136 656
WIRE 544 704 528 704
WIRE 848 720 832 720
WIRE 944 720 928 720
WIRE 1024 720 1008 720
WIRE 1136 784 1136 768
WIRE 608 816 608 800
WIRE 768 816 768 800
FLAG 1136 784 0
FLAG 1184 464 0
FLAG 1280 464 0
FLAG 768 816 0
FLAG 608 816 0
FLAG 1024 720 0
FLAG 496 464 0
FLAG 384 464 0
FLAG 1280 352 OUT
FLAG 384 352 IN
FLAG 592 464 0
FLAG 976 512 0
SYMBOL schottky 1024 368 R270
WINDOW 0 32 32 VTop 2
WINDOW 3 0 32 VBottom 2
SYMATTR InstName D1
SYMATTR Value MBRS130L
SYMBOL ind2 720 368 R270
WINDOW 0 32 56 VTop 2
WINDOW 3 5 56 VBottom 2
SYMATTR InstName L1
SYMATTR Value 22µ
SYMATTR SpiceLine Rser=0.02 Rpar=5000
SYMATTR Type ind
SYMBOL RES 832 736 R270
WINDOW 0 32 56 VTop 2
WINDOW 3 0 56 VBottom 2
SYMATTR InstName R1
SYMATTR Value 20K
SYMBOL RES 1120 528 R0
SYMATTR InstName R2
SYMATTR Value 365K
SYMBOL RES 1120 672 R0
SYMATTR InstName R3
SYMATTR Value 100K
SYMBOL CAP 944 736 R270
WINDOW 0 32 32 VTop 2
WINDOW 3 0 32 VBottom 2
SYMATTR InstName C1
SYMATTR Value .01µ
SYMBOL VOLTAGE 384 352 R0
SYMATTR InstName V1
SYMATTR Value 6.5
SYMATTR SpiceLine Rser=0.1
SYMBOL POWERPRODUCTS\\LT1302 688 656 R0
SYMATTR InstName U1
SYMBOL res 672 352 R0
SYMATTR InstName R4
SYMATTR Value 10
SYMBOL cap 672 448 R90
WINDOW 0 0 32 VBottom 2
WINDOW 3 32 32 VTop 2
SYMATTR InstName C2
SYMATTR Value 1µ
SYMBOL ind2 960 384 R0
SYMATTR InstName L2
SYMATTR Value 22µ
SYMATTR SpiceLine Rser=0.02 Rpar=5000
SYMATTR Type ind
SYMBOL cap 480 368 R0
SYMATTR InstName C3
SYMATTR Value 100µ
SYMATTR SpiceLine Rser=.1
SYMBOL cap 1168 368 R0
SYMATTR InstName C4
SYMATTR Value 220µ
SYMATTR SpiceLine Rser=20m
SYMBOL cap 880 336 M90
WINDOW 0 0 32 VBottom 2
WINDOW 3 32 32 VTop 2
SYMATTR InstName C5
SYMATTR Value 220µ
SYMATTR SpiceLine Rser=10m
SYMBOL RES 1264 352 R0
SYMATTR InstName Rload
SYMATTR Value 9.7
TEXT 1184 800 Left 2 !.tran 4m startup
TEXT 832 304 Bottom 2 ;LT1302 - µPower High Output Current Step-Up Converter\n2 Li-Ion Cell to 5.8V SEPIC Converter\nInput: 4V to 9V     Output: 5.8V @ 600mA
TEXT 256 824 Left 2 ;Note:\n  If the simulation model is not found please update with the "Sync Release" command from the "Tools" menu.\n  It remains the customer's responsibility to verify proper and reliable operation in the actual application.\n  Component substitution and printed circuit board layout may significantly affect circuit performance or reliability.\n  Contact your local sales representative for assistance. This circuit is distributed to customers only for use with LTC parts.\n  Copyright © 2012 Linear Technology Inc. All rights reserved.
