Version 4
SHEET 1 1692 1060
WIRE 320 480 320 448
WIRE 320 592 320 560
WIRE 432 448 320 448
WIRE 432 480 432 448
WIRE 432 592 432 544
WIRE 432 672 432 656
WIRE 432 752 432 736
WIRE 464 656 432 656
WIRE 528 448 432 448
WIRE 528 576 528 448
WIRE 560 576 528 576
WIRE 560 656 544 656
WIRE 560 736 544 736
WIRE 704 448 528 448
WIRE 704 512 704 448
WIRE 704 816 704 800
WIRE 752 448 704 448
WIRE 880 448 832 448
WIRE 880 576 848 576
WIRE 880 576 880 448
WIRE 880 656 848 656
WIRE 880 736 848 736
WIRE 912 448 880 448
WIRE 1008 448 976 448
WIRE 1008 512 1008 448
WIRE 1008 656 960 656
WIRE 1008 656 1008 592
WIRE 1008 672 1008 656
WIRE 1008 768 1008 752
WIRE 1104 448 1008 448
WIRE 1104 512 1104 448
WIRE 1104 656 1008 656
WIRE 1104 656 1104 576
WIRE 1200 448 1104 448
WIRE 1200 512 1200 448
WIRE 1200 656 1200 576
WIRE 1296 448 1200 448
WIRE 1296 496 1296 448
WIRE 1296 656 1296 576
FLAG 1296 448 OUT
FLAG 1008 768 0
FLAG 1200 656 0
FLAG 1296 656 0
FLAG 432 752 0
FLAG 320 592 0
FLAG 432 592 0
FLAG 704 816 0
FLAG 320 448 IN
SYMBOL CAP 416 672 R0
SYMATTR InstName C1
SYMATTR Value 100p
SYMBOL VOLTAGE 320 464 R0
WINDOW 123 0 0 Left 0
WINDOW 39 0 0 Left 0
SYMATTR InstName V1
SYMATTR Value 5
SYMBOL RES 992 496 R0
SYMATTR InstName R1
SYMATTR Value 100K
SYMBOL RES 992 656 R0
SYMATTR InstName R2
SYMATTR Value 11.3K
SYMBOL RES 560 640 R90
WINDOW 0 0 56 VBottom 0
WINDOW 3 32 56 VTop 0
SYMATTR InstName R3
SYMATTR Value 47K
SYMBOL ind 736 464 R270
WINDOW 0 32 56 VTop 0
WINDOW 3 5 56 VBottom 0
SYMATTR InstName L1
SYMATTR Value 4.7µ
SYMATTR SpiceLine Rser=0.65
SYMBOL LOAD2 1296 496 R0
SYMATTR InstName I1
SYMATTR Value 500m
SYMATTR SpiceLine load
SYMBOL SCHOTTKY 912 464 R270
WINDOW 0 32 32 VTop 0
WINDOW 3 0 32 VBottom 0
SYMATTR InstName D1
SYMATTR Value MBRS340
SYMBOL PowerProducts\\LT1308B 704 656 R0
SYMATTR InstName U1
SYMBOL cap 1184 512 R0
SYMATTR InstName C2
SYMATTR Value 10µ
SYMATTR SpiceLine V=25 Rser=4m
SYMBOL cap 416 480 R0
SYMATTR InstName C3
SYMATTR Value 4.7µ
SYMATTR SpiceLine V=6.3 Rser=10m
SYMBOL cap 1088 512 R0
SYMATTR InstName C4
SYMATTR Value 330p
SYMBOL res 976 640 R90
WINDOW 0 0 56 VBottom 0
WINDOW 3 32 56 VTop 0
SYMATTR InstName R4
SYMATTR Value 10K
TEXT 1160 752 Left 0 !.tran 1m startup
TEXT 232 832 Left 0 ;Note:\n  If the simulation model is not found please update with the "Sync Release" command from the "Tools" menu.\n  It remains the customer's responsibility to verify proper and reliable operation in the actual application.\n  Component substitution and printed circuit board layout may significantly affect circuit performance or reliability.\n  Contact your local sales representative for assistance. This circuit is distributed to customers only for use with LTC parts.\n  Copyright © 2006 Linear Technology Inc. All rights reserved.
TEXT 768 400 Bottom 0 ;LT1308B -   600kHz µPower Step-Up Switching Regulator\nInput: 5V     Output: 12V @ 500mA
