Version 4
SHEET 1 2444 1204
WIRE 1168 672 1056 672
WIRE 1328 672 1168 672
WIRE 1584 672 1456 672
WIRE 1648 672 1584 672
WIRE 1776 672 1712 672
WIRE 1056 688 1056 672
WIRE 1168 704 1168 672
WIRE 1328 704 1328 672
WIRE 1456 704 1456 672
WIRE 1584 704 1584 672
WIRE 1584 784 1584 768
WIRE 1584 784 1536 784
WIRE 1648 784 1584 784
WIRE 1776 784 1776 672
WIRE 1776 784 1728 784
WIRE 1888 784 1776 784
WIRE 1984 784 1888 784
WIRE 1056 800 1056 768
WIRE 1168 800 1168 768
WIRE 1584 800 1584 784
WIRE 1984 800 1984 784
WIRE 1776 816 1776 784
WIRE 1888 816 1888 784
WIRE 1584 880 1584 864
WIRE 1152 912 1136 912
WIRE 1248 912 1216 912
WIRE 1776 912 1776 896
WIRE 1776 912 1536 912
WIRE 1888 912 1888 880
WIRE 1984 912 1984 880
WIRE 1776 928 1776 912
WIRE 1392 1008 1392 992
WIRE 1776 1024 1776 1008
FLAG 1776 1024 0
FLAG 1584 880 0
FLAG 1984 912 0
FLAG 1888 912 0
FLAG 1392 1008 0
FLAG 1168 800 0
FLAG 1056 800 0
FLAG 1136 912 0
FLAG 1984 784 OUT
FLAG 1056 672 IN
SYMBOL RES 1760 912 R0
SYMATTR InstName R1
SYMATTR Value 4.99K
SYMBOL res 1760 800 R0
SYMATTR InstName R2
SYMATTR Value 5.36K
SYMBOL schottky 1568 864 M180
WINDOW 0 36 54 Left 0
WINDOW 3 24 0 Left 0
SYMATTR InstName D1
SYMATTR Value MBRS340
SYMBOL DIODE 1712 656 R90
WINDOW 0 0 32 VBottom 0
WINDOW 3 32 32 VTop 0
SYMATTR InstName D2
SYMATTR Value 1N4148
SYMBOL POLCAP 1872 816 R0
SYMATTR InstName C2
SYMATTR Value 100µ
SYMATTR SpiceLine Rser=0.05
SYMBOL POLCAP 1152 704 R0
SYMATTR InstName C3
SYMATTR Value 4.7µ
SYMATTR SpiceLine Rser=0.02
SYMBOL IND 1632 800 R270
WINDOW 0 32 56 VTop 0
WINDOW 3 5 56 VBottom 0
SYMATTR InstName L1
SYMATTR Value 10µ
SYMATTR SpiceLine Rser=0.02 Rpar=5000
SYMBOL VOLTAGE 1056 672 R0
SYMATTR InstName V1
SYMATTR Value 16
SYMATTR SpiceLine Rser=0.1
SYMBOL POWERPRODUCTS\\LT1375 1392 848 R0
SYMATTR InstName U1
SYMBOL res 1968 784 R0
SYMATTR InstName Rload
SYMATTR Value 5
SYMBOL cap 1216 896 R90
WINDOW 0 0 32 VBottom 0
WINDOW 3 32 32 VTop 0
WINDOW 39 60 32 VTop 0
SYMATTR InstName C4
SYMATTR Value 3.3n
SYMATTR SpiceLine Rser=1K
SYMBOL cap 1568 704 R0
SYMATTR InstName C1
SYMATTR Value .1µ
TEXT 1904 1024 Left 0 !.tran 1m startup
TEXT 1496 616 Bottom 0 ;LT1375 - 1.5A, 500kHz Step-Down Switching Regulators\n5V Buck Converter\nInput: 6V to 25V       Output: 5V @ 1A
TEXT 880 1048 Left 0 ;Note:\n  If the simulation model is not found please update with the "Sync Release" command from the "Tools" menu.\n  It remains the customer's responsibility to verify proper and reliable operation in the actual application.\n  Component substitution and printed circuit board layout may significantly affect circuit performance or reliability.\n  Contact your local sales representative for assistance. This circuit is distributed to customers only for use with LTC parts.\n  Copyright © 2011 Linear Technology Inc. All rights reserved.
