Version 4
SHEET 1 1520 680
WIRE 544 -96 160 -96
WIRE 992 -96 608 -96
WIRE 1136 -48 704 -48
WIRE 48 -32 -208 -32
WIRE 496 -32 48 -32
WIRE 592 -32 496 -32
WIRE 1040 -32 592 -32
WIRE 1136 -32 1136 -48
WIRE 496 -16 496 -32
WIRE 1040 -16 1040 -32
WIRE -208 0 -208 -32
WIRE 1136 64 1136 48
WIRE 48 80 48 -32
WIRE 64 80 48 80
WIRE 160 80 160 -96
WIRE 160 80 144 80
WIRE 176 80 160 80
WIRE 496 80 496 64
WIRE 496 80 432 80
WIRE 592 80 592 -32
WIRE 608 80 592 80
WIRE 704 80 704 -48
WIRE 704 80 688 80
WIRE 720 80 704 80
WIRE 992 80 992 -96
WIRE 992 80 976 80
WIRE 1040 80 1040 64
WIRE 1040 80 992 80
WIRE 496 96 496 80
WIRE 1040 96 1040 80
WIRE -208 112 -208 80
WIRE 48 208 48 80
WIRE 176 208 48 208
WIRE 496 208 496 176
WIRE 496 208 432 208
WIRE 592 208 592 80
WIRE 720 208 592 208
WIRE 1040 208 1040 176
WIRE 1040 208 976 208
WIRE 496 224 496 208
WIRE 1040 224 1040 208
WIRE 448 272 432 272
WIRE 992 272 976 272
WIRE 496 320 496 304
WIRE 1040 320 1040 304
FLAG 448 272 0
FLAG 992 272 0
FLAG 496 320 0
FLAG 1040 320 0
FLAG -208 112 0
FLAG 1136 64 0
FLAG -208 -32 IN
FLAG 1136 -48 OUT
SYMBOL LT1431 304 176 R0
SYMATTR InstName U1
SYMBOL LT1431 848 176 R0
SYMATTR InstName U2
SYMBOL res 160 64 R90
WINDOW 0 0 56 VBottom 2
WINDOW 3 32 56 VTop 2
SYMATTR InstName R1
SYMATTR Value 1K
SYMBOL res 704 64 R90
WINDOW 0 0 56 VBottom 2
WINDOW 3 32 56 VTop 2
SYMATTR InstName R2
SYMATTR Value 1K
SYMBOL res 480 80 R0
SYMATTR InstName R4
SYMATTR Value 5K
SYMBOL res 1024 80 R0
SYMATTR InstName R6
SYMATTR Value 5K
SYMBOL res 480 208 R0
SYMATTR InstName R3
SYMATTR Value 10
SYMBOL res 1024 208 R0
SYMATTR InstName R5
SYMATTR Value 10
SYMBOL res 480 -32 R0
SYMATTR InstName R7
SYMATTR Value 6K
SYMBOL res 1024 -32 R0
SYMATTR InstName R8
SYMATTR Value 4K
SYMBOL voltage -208 -16 R0
WINDOW 123 0 0 Left 2
WINDOW 39 0 0 Left 2
SYMATTR InstName V1
SYMATTR Value PWL(0 0 1 6 2 0)
SYMBOL diode 608 -112 R90
WINDOW 0 0 32 VBottom 2
WINDOW 3 32 32 VTop 2
SYMATTR InstName D1
SYMATTR Value 1N4148
SYMBOL res 1120 -48 R0
SYMATTR InstName R9
SYMATTR Value 100K
TEXT 1096 312 Left 2 !.tran 2 startup
TEXT 472 -208 Top 2 ;LT1431 - Programmable Reference\n5V Power Supply Monitor with ±500mV Window and 50mV Hysteresis
TEXT -200 328 Left 2 ;Note:\n  If the simulation model is not found please update with the "Sync Release" command from the "Tools" menu.\n  It remains the customer's responsibility to verify proper and reliable operation in the actual application.\n  Component substitution and printed circuit board layout may significantly affect circuit performance or reliability.\n  Contact your local sales representative for assistance. This circuit is distributed to customers only for use with LTC parts.\n  Copyright © 2012 Linear Technology Inc. All rights reserved.
