Version 4
SHEET 1 1408 680
WIRE -96 32 -304 32
WIRE 16 32 -16 32
WIRE 48 32 16 32
WIRE 160 32 128 32
WIRE 224 32 160 32
WIRE 432 32 224 32
WIRE -304 48 -304 32
WIRE 160 96 160 32
WIRE 224 96 224 32
WIRE 288 96 288 80
WIRE 16 128 16 32
WIRE 48 128 16 128
WIRE -304 144 -304 128
WIRE -32 192 -48 192
WIRE 48 192 32 192
WIRE 432 192 400 192
WIRE 48 256 -16 256
WIRE -224 272 -224 256
WIRE -16 272 -16 256
WIRE 288 320 288 288
WIRE -224 368 -224 352
WIRE -16 368 -16 352
FLAG 288 320 0
FLAG -224 368 0
FLAG -304 32 +IN
FLAG -16 368 0
FLAG 432 32 OUT1
FLAG -304 144 0
FLAG 432 192 OUT2
FLAG -48 192 0
FLAG 288 80 +V
FLAG -224 256 +V
SYMBOL LT1567 224 192 R0
SYMATTR InstName U1
SYMBOL res 0 16 R90
WINDOW 0 0 56 VBottom 2
WINDOW 3 32 56 VTop 2
SYMATTR InstName R1
SYMATTR Value 200
SYMBOL res 144 16 R90
WINDOW 0 0 56 VBottom 2
WINDOW 3 32 56 VTop 2
SYMATTR InstName R2
SYMATTR Value 200
SYMBOL voltage -224 256 R0
WINDOW 123 24 138 Left 2
WINDOW 39 24 117 Left 2
SYMATTR InstName V1
SYMATTR Value 12
SYMBOL voltage -304 32 R0
WINDOW 123 0 0 Left 2
WINDOW 39 24 44 Left 2
SYMATTR InstName V3
SYMATTR Value SINE(2.5 2 100K)
SYMBOL voltage -16 256 R0
WINDOW 123 24 138 Left 2
WINDOW 39 24 117 Left 2
SYMATTR InstName V5
SYMATTR Value 2.5
SYMBOL cap 32 176 R90
WINDOW 0 0 32 VBottom 2
WINDOW 3 32 32 VTop 2
SYMATTR InstName C1
SYMATTR Value .1µ
TEXT 408 304 Left 2 !.tran .1m
TEXT 136 -16 Bottom 2 ;LT1567 - 1.4nV/Rt.Hz 180MHz Filter Building Block\nSingle-Ended Input to Differential Output Amplifier
TEXT -504 384 Left 2 ;Note:\n  If the simulation model is not found please update with the "Sync Release" command from the "Tools" menu.\n  It remains the customer's responsibility to verify proper and reliable operation in the actual application.\n  Component substitution and printed circuit board layout may significantly affect circuit performance or reliability\n  Contact your local sales representative for assistance. This circuit is distributed to customers only for use with LTC parts\n  Copyright © 2015 Linear Technology Inc. All rights reserved.
