Version 4
SHEET 1 3364 1796
WIRE 1600 864 1504 864
WIRE 1824 864 1600 864
WIRE 1872 864 1824 864
WIRE 2000 864 1952 864
WIRE 2032 864 2000 864
WIRE 2144 864 2096 864
WIRE 2192 864 2144 864
WIRE 2304 864 2256 864
WIRE 2384 864 2304 864
WIRE 2480 864 2384 864
WIRE 1504 880 1504 864
WIRE 1600 880 1600 864
WIRE 2384 880 2384 864
WIRE 2480 880 2480 864
WIRE 1824 912 1824 864
WIRE 2144 928 2144 864
WIRE 2304 960 2304 864
WIRE 2384 960 2384 944
WIRE 2480 960 2480 944
WIRE 1504 976 1504 960
WIRE 1600 976 1600 944
WIRE 1680 976 1664 976
WIRE 2000 976 2000 864
WIRE 2000 976 1968 976
WIRE 2304 1056 2304 1040
WIRE 2304 1056 1968 1056
WIRE 2304 1072 2304 1056
WIRE 1520 1136 1504 1136
WIRE 1680 1136 1664 1136
WIRE 2000 1136 1968 1136
WIRE 2032 1136 2000 1136
WIRE 2144 1136 2144 1008
WIRE 2144 1136 2112 1136
WIRE 2144 1152 2144 1136
WIRE 2000 1168 2000 1136
WIRE 2304 1168 2304 1152
WIRE 1824 1216 1824 1200
WIRE 2000 1248 2000 1232
WIRE 2144 1248 2144 1232
FLAG 1504 976 0
FLAG 1824 1216 0
FLAG 1504 1136 0
FLAG 2480 960 0
FLAG 2384 960 0
FLAG 2304 1168 0
FLAG 2144 1248 0
FLAG 2000 1248 0
FLAG 2480 864 OUT
FLAG 1504 864 IN
FLAG 1600 976 0
SYMBOL VOLTAGE 1504 864 R0
WINDOW 123 0 0 Left 2
WINDOW 39 0 0 Left 2
SYMATTR InstName V1
SYMATTR Value 24
SYMBOL CAP 1584 1120 R90
WINDOW 0 0 32 VBottom 2
WINDOW 3 32 32 VTop 2
SYMATTR InstName C1
SYMATTR Value .2µ
SYMBOL RES 1680 1120 R90
WINDOW 0 0 56 VBottom 2
WINDOW 3 32 56 VTop 2
SYMATTR InstName R1
SYMATTR Value 100
SYMBOL RES 2288 1056 R0
SYMATTR InstName R2
SYMATTR Value 34K
SYMBOL RES 2288 944 R0
SYMATTR InstName R3
SYMATTR Value 78.7K
SYMBOL schottky 2192 880 R270
WINDOW 0 32 32 VTop 2
WINDOW 3 0 32 VBottom 2
SYMATTR InstName D1
SYMATTR Value MBRS130L
SYMBOL ind2 2128 1024 M180
WINDOW 0 36 80 Left 2
WINDOW 3 36 40 Left 2
SYMATTR InstName L1
SYMATTR Value 33µ
SYMBOL ind2 1856 880 R270
WINDOW 0 32 56 VTop 2
WINDOW 3 4 56 VBottom 2
SYMATTR InstName L2
SYMATTR Value 33µ
SYMBOL RES 2128 1136 R0
SYMATTR InstName R4
SYMATTR Value .25
SYMBOL res 2128 1120 R90
WINDOW 0 0 56 VBottom 2
WINDOW 3 32 56 VTop 2
SYMATTR InstName R5
SYMATTR Value 4.7K
SYMBOL CAP 1984 1168 R0
SYMATTR InstName C3
SYMATTR Value .22µ
SYMBOL cap 2464 880 R0
SYMATTR InstName C4
SYMATTR Value 500µ
SYMBOL PowerProducts\\LT1513-2 1824 1056 R0
SYMATTR InstName U1
SYMBOL cap 2368 880 R0
SYMATTR InstName C5
SYMATTR Value 22µ
SYMATTR SpiceLine Rser=.1
SYMBOL cap 1584 880 R0
SYMATTR InstName C6
SYMATTR Value 22µ
SYMBOL cap 2096 848 R90
WINDOW 0 0 32 VBottom 2
WINDOW 3 32 32 VTop 2
SYMATTR InstName C7
SYMATTR Value 4.7µ
TEXT 2008 808 Left 2 !K1 L1 L2 1
TEXT 2344 1200 Left 2 !.tran 10m startup
TEXT 2088 712 Top 2 ;LT1513 - SEPIC Constant- or Programmable-Current/Constant-Voltage Battery Charger\nSingle Cell Lithium-Ion SEPIC Battery Charger\nInput: 6V to 50V     Output: 4.2V @ 1.2A
TEXT 1408 1256 Left 2 ;Note:\n  If the simulation model is not found please update with the "Sync Release" command from the "Tools" menu.\n  It remains the customer's responsibility to verify proper and reliable operation in the actual application.\n  Component substitution and printed circuit board layout may significantly affect circuit performance or reliability.\n  Contact your local sales representative for assistance. This circuit is distributed to customers only for use with LTC parts.\n  Copyright © 2012 Linear Technology Inc. All rights reserved.
TEXT 2344 1232 Left 2 !.ic V(out) = 3.9
