Version 4
SHEET 1 1548 1608
WIRE -480 -192 -736 -192
WIRE 32 -192 -416 -192
WIRE -320 -128 -592 -128
WIRE 32 -128 32 -192
WIRE 32 -128 -256 -128
WIRE -144 -48 -560 -48
WIRE -128 -48 -144 -48
WIRE -32 -48 -48 -48
WIRE -560 0 -560 -48
WIRE -544 0 -560 0
WIRE -144 0 -144 -48
WIRE -144 0 -160 0
WIRE -960 80 -1232 80
WIRE -832 80 -880 80
WIRE -736 80 -736 -192
WIRE -736 80 -768 80
WIRE -704 80 -736 80
WIRE -544 80 -624 80
WIRE -128 80 -160 80
WIRE -16 80 -48 80
WIRE 32 80 32 -128
WIRE 32 80 -16 80
WIRE 48 80 32 80
WIRE 128 80 112 80
WIRE -1232 96 -1232 80
WIRE 32 128 32 80
WIRE -736 160 -736 80
WIRE -544 160 -736 160
WIRE -16 160 -16 80
WIRE -16 160 -160 160
WIRE -1232 192 -1232 176
WIRE -816 240 -832 240
WIRE -736 240 -736 160
WIRE -736 240 -752 240
WIRE -704 240 -736 240
WIRE -592 240 -592 -128
WIRE -592 240 -624 240
WIRE -544 240 -592 240
WIRE 32 240 32 208
WIRE 32 240 -160 240
WIRE 96 240 32 240
WIRE -544 320 -576 320
WIRE -144 320 -160 320
WIRE -544 400 -560 400
WIRE -144 400 -160 400
WIRE -544 480 -560 480
WIRE -144 480 -160 480
WIRE -672 560 -688 560
WIRE -560 560 -592 560
WIRE -544 560 -560 560
WIRE -144 560 -160 560
WIRE -560 608 -560 560
WIRE -144 608 -144 560
WIRE -144 608 -560 608
FLAG -1232 80 IN
FLAG -32 -48 0
FLAG -1232 192 0
FLAG -688 560 0
FLAG 96 240 OUT
FLAG -560 400 0
FLAG -144 400 0
FLAG -832 240 0
FLAG 128 80 0
FLAG -560 480 0
FLAG -144 480 0
SYMBOL res -608 224 R90
WINDOW 0 0 56 VBottom 2
WINDOW 3 32 56 VTop 2
SYMATTR InstName R3
SYMATTR Value {R}
SYMATTR SpiceLine tol=1
SYMBOL LT1568 -352 416 R0
SYMBOL cap -832 96 R270
WINDOW 0 32 32 VTop 2
WINDOW 3 0 32 VBottom 2
SYMATTR InstName ZA3
SYMATTR Value {C}
SYMBOL res -720 96 R270
WINDOW 0 32 56 VTop 2
WINDOW 3 0 56 VBottom 2
SYMATTR InstName R2
SYMATTR Value {R}
SYMATTR SpiceLine tol=1
SYMBOL res -32 64 R90
WINDOW 0 0 56 VBottom 2
WINDOW 3 32 56 VTop 2
SYMATTR InstName R5
SYMATTR Value {R}
SYMATTR SpiceLine tol=1
SYMBOL res 16 224 M180
WINDOW 0 36 76 Left 2
WINDOW 3 36 40 Left 2
SYMATTR InstName R4
SYMATTR Value {R}
SYMATTR SpiceLine tol=1
SYMBOL voltage -144 -48 R270
WINDOW 0 32 56 VTop 2
WINDOW 3 -32 56 VBottom 2
SYMATTR InstName V2
SYMATTR Value 5
SYMBOL voltage -1232 80 R0
WINDOW 123 24 138 Left 2
WINDOW 39 24 117 Left 2
SYMATTR Value2 AC 1
SYMATTR Value PULSE(-1 1 1u 10n 10n 2u 10u 1)
SYMATTR InstName V1
SYMBOL voltage -576 560 R90
WINDOW 123 74 56 VTop 2
WINDOW 39 53 56 VTop 2
WINDOW 0 -32 56 VBottom 2
WINDOW 3 32 56 VTop 2
SYMATTR InstName V3
SYMATTR Value -5
SYMBOL res -976 96 R270
WINDOW 0 32 56 VTop 2
WINDOW 3 0 56 VBottom 2
SYMATTR InstName ZA1
SYMATTR Value 49.9
SYMATTR SpiceLine tol=1
SYMBOL cap -256 -144 R90
WINDOW 0 0 32 VBottom 2
WINDOW 3 32 32 VTop 2
SYMATTR InstName ZAB1
SYMATTR Value {C}
SYMBOL cap -752 224 R90
WINDOW 0 0 32 VBottom 2
WINDOW 3 32 32 VTop 2
SYMATTR InstName CSA
SYMATTR Value {C}
SYMBOL cap 48 64 M90
WINDOW 0 0 32 VBottom 2
WINDOW 3 32 32 VTop 2
SYMATTR InstName CSB
SYMATTR Value {C}
SYMBOL cap -416 -208 R90
WINDOW 0 0 32 VBottom 2
WINDOW 3 32 32 VTop 2
SYMATTR InstName CN1
SYMATTR Value 2.7p
TEXT -48 520 Left 2 !.ac oct 250 10K 1Meg
TEXT -48 448 Left 2 !; For fc = 100kHz\n.param R=9.09K C=68p
TEXT -344 -248 Bottom 2 ;LT1568 - Very Low Noise, High Frequency Active RC, Filter Building Block\n4th Order Bandpass with External Capacitors\n-3dB Passband = sqrt(C/(10+7.7))
TEXT -1096 616 Left 2 ;Notes: \n  Gain at fc (Gn) = C^2/4900. C = 70 * sqrt(Gn) pF. Min R3 and R4 is 100ohms. See Demo Manual DC675B for details.\n  If the simulation model is not found please update with the "Sync Release" command from the "Tools" menu.\n  It remains the customer's responsibility to verify proper and reliable operation in the actual application.\n  Component substitution and printed circuit board layout may significantly affect circuit performance or reliability.\n  Contact your local sales representative for assistance. This circuit is distributed to customers only for use with LTC parts.\n  Copyright © 2015 Linear Technology Inc.  All rights reserved.
