Version 4
SHEET 1 1548 1608
WIRE -400 -240 -752 -240
WIRE -16 -240 -320 -240
WIRE -384 -144 -720 -144
WIRE -16 -144 -16 -240
WIRE -16 -144 -320 -144
WIRE -656 -64 -672 -64
WIRE -560 -64 -576 -64
WIRE -144 -64 -560 -64
WIRE -560 0 -560 -64
WIRE -544 0 -560 0
WIRE -144 0 -144 -64
WIRE -144 0 -160 0
WIRE -1040 80 -1312 80
WIRE -912 80 -960 80
WIRE -832 80 -912 80
WIRE -720 80 -720 -144
WIRE -720 80 -768 80
WIRE -656 80 -720 80
WIRE -544 80 -576 80
WIRE -16 80 -16 -144
WIRE -16 80 -160 80
WIRE -1312 96 -1312 80
WIRE -912 96 -912 80
WIRE -720 160 -720 80
WIRE -544 160 -720 160
WIRE -128 160 -160 160
WIRE -16 160 -16 80
WIRE -16 160 -48 160
WIRE 0 160 -16 160
WIRE 96 160 80 160
WIRE -1312 192 -1312 176
WIRE -912 192 -912 176
WIRE -720 240 -720 160
WIRE -656 240 -720 240
WIRE -544 240 -576 240
WIRE 96 240 96 160
WIRE 96 240 -160 240
WIRE 128 240 96 240
WIRE -752 320 -752 -240
WIRE -544 320 -752 320
WIRE 128 320 -160 320
WIRE -672 400 -688 400
WIRE -592 400 -608 400
WIRE -544 400 -592 400
WIRE -112 400 -160 400
WIRE -592 480 -592 400
WIRE -544 480 -592 480
WIRE -144 480 -160 480
WIRE -544 560 -560 560
WIRE -144 560 -160 560
WIRE -592 608 -592 480
WIRE -112 608 -112 400
WIRE -112 608 -592 608
FLAG -1312 80 IN
FLAG -672 -64 0
FLAG -1312 192 0
FLAG 128 240 O1
FLAG -560 560 0
FLAG -688 400 0
FLAG -912 192 0
FLAG 128 320 O2
FLAG -144 480 0
FLAG -144 560 0
SYMBOL res -560 224 R90
WINDOW 0 0 56 VBottom 2
WINDOW 3 32 56 VTop 2
SYMATTR InstName R3
SYMATTR Value {1G/fc}
SYMATTR SpiceLine tol=1
SYMBOL LT1568 -352 416 R0
SYMBOL cap -832 96 R270
WINDOW 0 32 32 VTop 2
WINDOW 3 0 32 VBottom 2
SYMATTR InstName ZA3
SYMATTR Value 68p
SYMBOL res -672 96 R270
WINDOW 0 32 56 VTop 2
WINDOW 3 0 56 VBottom 2
SYMATTR InstName R2
SYMATTR Value {1G/fc}
SYMATTR SpiceLine tol=1
SYMBOL res -144 176 R270
WINDOW 0 32 56 VTop 2
WINDOW 3 0 56 VBottom 2
SYMATTR InstName RB1
SYMATTR Value {1G/fc}
SYMATTR SpiceLine tol=1
SYMBOL res 96 144 R90
WINDOW 0 0 56 VBottom 2
WINDOW 3 32 56 VTop 2
SYMATTR InstName R4
SYMATTR Value {1G/fc}
SYMATTR SpiceLine tol=1
SYMBOL voltage -560 -64 R90
WINDOW 0 -32 56 VBottom 2
WINDOW 3 32 56 VTop 2
WINDOW 123 74 56 VTop 2
WINDOW 39 53 56 VTop 2
SYMATTR InstName V2
SYMATTR Value 5
SYMBOL voltage -1312 80 R0
WINDOW 123 24 138 Left 2
WINDOW 39 24 117 Left 2
SYMATTR Value PULSE(0 5 1u 5n 5n 0.5u 1u)
SYMATTR InstName V1
SYMBOL res -1056 96 R270
WINDOW 0 32 56 VTop 2
WINDOW 3 0 56 VBottom 2
SYMATTR InstName ZA1
SYMATTR Value {6.2G/fc}
SYMATTR SpiceLine tol=1
SYMBOL cap -320 -160 R90
WINDOW 0 0 32 VBottom 2
WINDOW 3 32 32 VTop 2
SYMATTR InstName CN1
SYMATTR Value 27p
SYMBOL res -304 -256 R90
WINDOW 0 0 56 VBottom 2
WINDOW 3 32 56 VTop 2
SYMATTR InstName ZAB1
SYMATTR Value {1G/fc}
SYMATTR SpiceLine tol=1
SYMBOL cap -608 384 R90
WINDOW 0 0 32 VBottom 2
WINDOW 3 32 32 VTop 2
SYMATTR InstName CD3
SYMATTR Value 0.1µ
SYMBOL res -928 80 R0
SYMATTR InstName ZA2
SYMATTR Value {1G/fc}
SYMATTR SpiceLine tol=1
TEXT -56 576 Left 2 !.tran 25u
TEXT -56 544 Left 2 !.param fc=1Meg
TEXT -504 -296 Bottom 2 ;LT1568 - Very Low Noise, High Frequency Active RC, Filter Building Block\nA Squarewave to Differential Sinewave Converter\nfc Range: 50kHz to 5MHz
TEXT -1208 616 Left 2 ;Notes: \n  The ration of ZA1/ZA3 sets the Vp-p of the differential output (O1 - O2). See Demo Manual DC675B for details.\n  If the simulation model is not found please update with the "Sync Release" command from the "Tools" menu.\n  It remains the customer's responsibility to verify proper and reliable operation in the actual application.\n  Component substitution and printed circuit board layout may significantly affect circuit performance or reliability.\n  Contact your local sales representative for assistance. This circuit is distributed to customers only for use with LTC parts.\n  Copyright © 2015 Linear Technology Inc.  All rights reserved.
