Version 4
SHEET 1 1896 924
WIRE 480 368 368 368
WIRE 784 368 544 368
WIRE 368 384 368 368
WIRE 784 384 784 368
WIRE 1104 400 992 400
WIRE 1280 400 1104 400
WIRE 1408 400 1280 400
WIRE 1104 416 1104 400
WIRE 1280 416 1280 400
WIRE 1408 416 1408 400
WIRE 528 448 448 448
WIRE 640 448 528 448
WIRE 992 448 992 400
WIRE 992 448 928 448
WIRE 528 464 528 448
WIRE 368 480 368 464
WIRE 448 496 448 448
WIRE 1280 512 1280 496
WIRE 1280 512 928 512
WIRE 1408 512 1408 480
WIRE 1280 528 1280 512
WIRE 528 544 528 528
WIRE 640 544 528 544
WIRE 528 560 528 544
WIRE 960 576 928 576
WIRE 1088 576 1024 576
WIRE 1184 576 1168 576
WIRE 1280 624 1280 608
WIRE 448 640 448 576
WIRE 528 640 528 624
WIRE 528 640 448 640
WIRE 640 640 528 640
WIRE 976 640 928 640
WIRE 1040 640 976 640
WIRE 1168 640 1104 640
WIRE 528 656 528 640
WIRE 976 656 976 640
WIRE 1168 656 1168 640
WIRE 528 736 528 720
WIRE 784 752 784 704
WIRE 976 752 976 736
WIRE 1168 752 1168 736
FLAG 368 480 0
FLAG 784 752 0
FLAG 1408 512 0
FLAG 1280 624 0
FLAG 1184 576 0
FLAG 1168 752 0
FLAG 976 752 0
FLAG 1104 480 0
FLAG 528 736 0
FLAG 1408 400 OUT
FLAG 368 368 IN
SYMBOL POWERPRODUCTS\\LT1510 784 544 R0
SYMATTR InstName U1
SYMBOL VOLTAGE 368 368 R0
SYMATTR InstName V1
SYMATTR Value 14
SYMBOL ind 464 592 R180
WINDOW 0 3 80 Right 2
WINDOW 3 3 31 Right 2
SYMATTR InstName L1
SYMATTR Value 10µ
SYMBOL cap 512 560 R0
WINDOW 3 24 57 Left 2
SYMATTR Value .22µ
SYMATTR InstName C1
SYMBOL diode 512 464 R0
WINDOW 3 26 60 Left 2
SYMATTR Value 1N4148
SYMATTR InstName D1
SYMBOL RES 1264 400 R0
SYMATTR InstName R1
SYMATTR Value 70.6K
SYMBOL res 1264 512 R0
SYMATTR InstName R2
SYMATTR Value 100K
SYMBOL res 1072 592 R270
WINDOW 0 32 56 VTop 2
WINDOW 3 0 56 VBottom 2
SYMATTR InstName R3
SYMATTR Value 1K
SYMBOL cap 1024 560 R90
WINDOW 0 0 32 VBottom 2
WINDOW 3 32 32 VTop 2
SYMATTR InstName C2
SYMATTR Value .1µ
SYMBOL res 1152 640 R0
SYMATTR InstName R5
SYMATTR Value 300
SYMBOL cap 1104 624 R90
WINDOW 0 0 32 VBottom 2
WINDOW 3 32 32 VTop 2
SYMATTR InstName C3
SYMATTR Value 1µ
SYMBOL res 960 640 R0
SYMATTR InstName R6
SYMATTR Value 6.19K
SYMBOL cap 1088 416 R0
WINDOW 3 33 51 Left 2
SYMATTR Value 22µ
SYMATTR InstName C4
SYMBOL schottky 512 720 M180
WINDOW 0 33 60 Left 2
WINDOW 3 24 0 Left 2
SYMATTR InstName D2
SYMATTR Value 1N5818
SYMBOL cap 1392 416 R0
SYMATTR InstName C5
SYMATTR Value 5m
SYMATTR SpiceLine Rser=10m
SYMBOL schottky 480 384 R270
WINDOW 0 32 32 VTop 2
WINDOW 3 0 32 VBottom 2
SYMATTR InstName D3
SYMATTR Value MBRS130L
SYMATTR Description Diode
SYMATTR Type diode
TEXT 1296 736 Left 2 !.tran 10m startup
TEXT 1296 704 Left 2 !.ic V(out) = 3
TEXT 896 280 Top 2 ;LT1510 - Constant-Voltage/Constant-Current Battery Charger\n500kHz Li-Ion Battery Charger\nInput: 8.2V to 20V     Output: 4.2V @ .8A
TEXT 240 768 Left 2 ;Note:\n  If the simulation model is not found please update with the "Sync Release" command from the "Tools" menu.\n  It remains the customer's responsibility to verify proper and reliable operation in the actual application.\n  Component substitution and printed circuit board layout may significantly affect circuit performance or reliability.\n  Contact your local sales representative for assistance. This circuit is distributed to customers only for use with LTC parts.\n  Copyright © 2012 Linear Technology Inc. All rights reserved.
