Version 4
SHEET 1 1408 680
WIRE 224 -192 -336 -192
WIRE -336 -176 -336 -192
WIRE 64 -128 16 -128
WIRE 160 -128 128 -128
WIRE 400 -128 160 -128
WIRE -336 -80 -336 -96
WIRE 288 -32 288 -64
WIRE -96 0 -336 0
WIRE 16 0 16 -128
WIRE 16 0 -16 0
WIRE 48 0 16 0
WIRE 160 0 160 -128
WIRE 160 0 128 0
WIRE -336 16 -336 0
WIRE 160 96 160 0
WIRE 224 96 224 -192
WIRE 288 96 288 48
WIRE -336 112 -336 96
WIRE -96 128 -128 128
WIRE 16 128 16 0
WIRE 16 128 -16 128
WIRE 48 128 16 128
WIRE 432 192 400 192
WIRE -48 256 -64 256
WIRE 48 256 32 256
WIRE 288 320 288 288
WIRE -128 352 -128 128
WIRE 432 352 432 192
WIRE 432 352 -128 352
FLAG 288 320 0
FLAG 288 -64 0
FLAG -336 -192 +IN
FLAG -336 0 -IN
FLAG -336 112 0
FLAG -64 256 0
FLAG 400 -128 OUT
FLAG -336 -80 0
SYMBOL LT1567 224 192 R0
SYMATTR InstName U1
SYMBOL res 0 -16 R90
WINDOW 0 0 56 VBottom 2
WINDOW 3 32 56 VTop 2
SYMATTR InstName R1
SYMATTR Value 604
SYMBOL res 144 -16 R90
WINDOW 0 0 56 VBottom 2
WINDOW 3 32 56 VTop 2
SYMATTR InstName R2
SYMATTR Value 2.43K
SYMBOL res 0 112 R90
WINDOW 0 0 56 VBottom 2
WINDOW 3 32 56 VTop 2
SYMATTR InstName R3
SYMATTR Value 604
SYMBOL cap 128 -144 R90
WINDOW 0 0 32 VBottom 2
WINDOW 3 32 32 VTop 2
SYMATTR InstName C1
SYMATTR Value 270p
SYMBOL voltage 288 64 M180
WINDOW 123 24 -14 Left 2
WINDOW 39 24 1 Left 2
WINDOW 0 24 96 Left 2
WINDOW 3 24 16 Left 2
SYMATTR InstName V1
SYMATTR Value 12
SYMBOL voltage -336 -192 R0
WINDOW 123 0 0 Left 2
WINDOW 39 24 44 Left 2
SYMATTR InstName V3
SYMATTR Value SINE(0 .5 10K)
SYMBOL voltage -336 0 R0
WINDOW 123 24 126 Left 2
WINDOW 39 24 111 Left 2
SYMATTR InstName V4
SYMATTR Value SINE(0 -.5 10K)
SYMBOL voltage 48 256 R90
WINDOW 0 -32 56 VBottom 2
WINDOW 3 32 56 VTop 2
WINDOW 123 0 0 Left 2
WINDOW 39 0 0 Left 2
SYMATTR InstName V5
SYMATTR Value 5
TEXT 464 336 Left 2 !.tran 1m
TEXT 160 -208 Bottom 2 ;LT1567 - 1.4nV/Rt.Hz 180MHz Filter Building Block\nDifferential Input-to-Single-Ended Output Amplifier
TEXT -472 360 Left 2 ;Note:\n  If the simulation model is not found please update with the "Sync Release" command from the "Tools" menu.\n  It remains the customer's responsibility to verify proper and reliable operation in the actual application.\n  Component substitution and printed circuit board layout may significantly affect circuit performance or reliability\n  Contact your local sales representative for assistance. This circuit is distributed to customers only for use with LTC parts\n  Copyright © 2014 Linear Technology Inc. All rights reserved.
