Version 4
SHEET 1 1328 680
WIRE -64 176 -288 176
WIRE 32 176 -64 176
WIRE 384 176 288 176
WIRE 480 176 384 176
WIRE -288 192 -288 176
WIRE -64 192 -64 176
WIRE 384 192 384 176
WIRE 480 192 480 176
WIRE -288 288 -288 272
WIRE -64 288 -64 256
WIRE 384 288 384 256
WIRE 480 288 480 272
WIRE 160 304 160 272
FLAG -288 288 0
FLAG 384 288 0
FLAG 480 288 0
FLAG 160 304 0
FLAG -288 176 IN
FLAG 480 176 OUT
FLAG -64 288 0
SYMBOL voltage -288 176 R0
WINDOW 123 0 0 Left 2
WINDOW 39 0 0 Left 2
SYMATTR InstName V1
SYMATTR Value PWL(0 0 1 7)
SYMBOL cap 368 192 R0
SYMATTR InstName C1
SYMATTR Value 22µ
SYMBOL res 464 176 R0
SYMATTR InstName Rload
SYMATTR Value .72
SYMBOL PowerProducts\\LT1585-3.3 160 176 R0
SYMATTR InstName U2
SYMBOL cap -80 192 R0
SYMATTR InstName C2
SYMATTR Value 1µ
TEXT 528 312 Left 2 !.tran 1
TEXT 176 96 Bottom 2 ;LT1585-3.3 - 4.6A Low Dropout Fast Response Positive Regulator\n3.3V, 4.6A Regulator\nInput: 4.75V to 7V      Output: 3.3V @ 4.6A
TEXT -440 320 Left 2 ;Notes:\n  If the simulation model is not found please update with the "Sync Release" command from the "Tools" menu.\n  It remains the customer's responsibility to verify proper and reliable operation in the actual application.\n  Component substitution and printed circuit board layout may significantly affect circuit performance or reliability.\n  Contact your local sales representative for assistance. This circuit is distributed to customers only for use with LTC parts.\n  Copyright © 2013 Linear Technology Inc. All rights reserved.
