Version 4
SHEET 1 1572 1100
WIRE 208 592 208 480
WIRE 208 784 208 672
WIRE 304 480 208 480
WIRE 304 608 304 480
WIRE 304 784 304 672
WIRE 384 480 304 480
WIRE 384 656 384 480
WIRE 432 656 384 656
WIRE 512 480 384 480
WIRE 512 560 512 480
WIRE 560 480 512 480
WIRE 592 784 592 752
WIRE 672 480 640 480
WIRE 672 560 672 480
WIRE 720 480 672 480
WIRE 848 480 784 480
WIRE 848 528 848 480
WIRE 848 656 752 656
WIRE 848 656 848 608
WIRE 848 672 848 656
WIRE 848 784 848 752
WIRE 944 480 848 480
WIRE 944 528 944 480
WIRE 944 656 848 656
WIRE 944 656 944 592
WIRE 1024 480 944 480
WIRE 1024 608 1024 480
WIRE 1024 784 1024 672
WIRE 1120 480 1024 480
WIRE 1120 592 1120 480
WIRE 1120 784 1120 672
FLAG 1120 480 OUT
FLAG 848 784 0
FLAG 1024 784 0
FLAG 1120 784 0
FLAG 592 784 0
FLAG 208 784 0
FLAG 304 784 0
FLAG 208 480 IN
SYMBOL VOLTAGE 208 576 R0
WINDOW 123 0 0 Left 0
WINDOW 39 0 0 Left 0
SYMATTR InstName V1
SYMATTR Value 5
SYMBOL RES 832 512 R0
SYMATTR InstName R1
SYMATTR Value 107K
SYMBOL RES 832 656 R0
SYMATTR InstName R2
SYMATTR Value 12.3K
SYMBOL ind 544 496 R270
WINDOW 0 32 56 VTop 0
WINDOW 3 5 56 VBottom 0
SYMATTR InstName L1
SYMATTR Value 10µ
SYMATTR SpiceLine Ipk=450m Rser=0.3
SYMBOL LOAD2 1120 592 R0
WINDOW 123 0 0 Left 0
WINDOW 39 0 0 Left 0
SYMATTR InstName Iload
SYMATTR Value 130m
SYMBOL SCHOTTKY 720 496 R270
WINDOW 0 32 32 VTop 0
WINDOW 3 0 32 VBottom 0
SYMATTR InstName D1
SYMATTR Value MBR0520L
SYMBOL POWERPRODUCTS\\LT1613 592 656 R0
WINDOW 0 0 -120 Center 0
WINDOW 3 46 113 Left 0
SYMATTR InstName U1
SYMBOL cap 1008 608 R0
SYMATTR InstName C3
SYMATTR Value 4.7µ
SYMATTR SpiceLine V=16 Rser=10m
SYMBOL cap 288 608 R0
SYMATTR InstName C1
SYMATTR Value 4.7µ
SYMATTR SpiceLine V=6.3 Rser=10m
SYMBOL cap 928 528 R0
SYMATTR InstName C2
SYMATTR Value 200p
TEXT 824 824 Left 0 !.tran .5m startup
TEXT 104 840 Left 0 ;Note:\n  If the simulation model is not found please update with the "Sync Release" command from the "Tools" menu.\n  It remains the customer's responsibility to verify proper and reliable operation in the actual application.\n  Component substitution and printed circuit board layout may significantly affect circuit performance or reliability.\n  Contact your local sales representative for assistance. This circuit is distributed to customers only for use with LTC parts.\n  Copyright © 2006 Linear Technology Inc. All rights reserved.
TEXT 680 424 Bottom 0 ;LT1613 -  1.4MHz Single Cell DC/DC Converter\nInput: 5V     Output: 12V @ 130mA
