Version 4
SHEET 1 1736 964
WIRE 320 464 224 464
WIRE 384 464 320 464
WIRE 512 464 384 464
WIRE 560 464 512 464
WIRE 672 464 640 464
WIRE 688 464 672 464
WIRE 784 464 752 464
WIRE 832 464 784 464
WIRE 960 464 912 464
WIRE 1072 464 960 464
WIRE 1168 464 1072 464
WIRE 224 480 224 464
WIRE 320 480 320 464
WIRE 1072 480 1072 464
WIRE 1168 480 1168 464
WIRE 784 496 784 464
WIRE 960 544 960 464
WIRE 512 560 512 464
WIRE 672 560 672 464
WIRE 224 576 224 560
WIRE 320 576 320 544
WIRE 784 576 784 560
WIRE 1072 576 1072 544
WIRE 1168 576 1168 560
WIRE 384 656 384 464
WIRE 432 656 384 656
WIRE 960 656 960 624
WIRE 960 656 752 656
WIRE 960 672 960 656
WIRE 592 768 592 752
WIRE 960 768 960 752
FLAG 320 576 0
FLAG 224 576 0
FLAG 592 768 0
FLAG 1168 576 0
FLAG 1072 576 0
FLAG 960 768 0
FLAG 784 576 0
FLAG 1168 464 OUT
FLAG 224 464 IN
SYMBOL POLCAP 304 480 R0
SYMATTR InstName C1
SYMATTR Value 22µ
SYMATTR SpiceLine Rser=0.05
SYMBOL POLCAP 1056 544 M180
WINDOW 0 24 57 Left 2
WINDOW 3 24 8 Left 2
SYMATTR InstName C2
SYMATTR Value 22µ
SYMATTR SpiceLine Rser=0.02
SYMBOL SCHOTTKY 768 496 R0
SYMATTR InstName D1
SYMATTR Value MBRS140
SYMBOL RES 944 656 R0
SYMATTR InstName R2
SYMATTR Value 10.0K
SYMBOL RES 944 528 R0
SYMATTR InstName R1
SYMATTR Value 29.4K
SYMBOL VOLTAGE 224 464 R0
WINDOW 123 0 0 Left 2
SYMATTR InstName V1
SYMATTR Value 5
SYMATTR SpiceLine Rser=0.1
SYMBOL polcap 688 448 M90
WINDOW 0 0 32 VBottom 2
WINDOW 3 32 32 VTop 2
SYMATTR InstName C4
SYMATTR Value 1µ
SYMBOL POWERPRODUCTS\\LT1611 592 656 R0
WINDOW 0 0 -120 Center 2
WINDOW 3 32 120 Left 2
SYMATTR InstName U1
SYMBOL ind2 928 480 M270
WINDOW 0 32 56 VTop 2
WINDOW 3 4 56 VBottom 2
SYMATTR InstName L2
SYMATTR Value 4.7µ
SYMATTR SpiceLine Rser=0.02 Rpar=5000
SYMBOL ind2 544 480 R270
WINDOW 0 32 56 VTop 2
WINDOW 3 4 56 VBottom 2
SYMATTR InstName L1
SYMATTR Value 4.7µ
SYMATTR SpiceLine Rser=0.02 Rpar=5000
SYMBOL RES 1152 576 M180
WINDOW 0 36 76 Left 2
WINDOW 3 36 40 Left 2
SYMATTR InstName Rload
SYMATTR Value 33
TEXT 1040 768 Left 2 !.tran 1m startup
TEXT 720 424 Bottom 2 !K1 L1 L2 1
TEXT 720 392 Bottom 2 ;LT1611 - Inverting 1.4MHz Switching Regulator\n5V to -5V, 150mA Low Noise Inverting DC/DC Converter\nInput: 1.1V to 10V      Output: -5V @ 150mA
TEXT 80 776 Left 2 ;Notes:\n  If the simulation model is not found please update with the "Sync Release" command from the "Tools" menu.\n  It remains the customer's responsibility to verify proper and reliable operation in the actual application.\n  Component substitution and printed circuit board layout may significantly affect circuit performance or reliability.\n  Contact your local sales representative for assistance. This circuit is distributed to customers only for use with LTC parts.\n  Copyright © 2013 Linear Technology Inc. All rights reserved.
