Version 4
SHEET 1 2876 1588
WIRE 1392 1152 1392 1056
WIRE 1392 1296 1392 1232
WIRE 1488 1056 1392 1056
WIRE 1488 1152 1488 1056
WIRE 1488 1296 1488 1216
WIRE 1568 1056 1488 1056
WIRE 1568 1072 1568 1056
WIRE 1568 1184 1568 1152
WIRE 1568 1200 1568 1184
WIRE 1568 1296 1568 1264
WIRE 1680 1056 1568 1056
WIRE 1680 1184 1568 1184
WIRE 1824 992 1824 944
WIRE 1824 1296 1824 1248
WIRE 2016 944 1824 944
WIRE 2016 960 2016 944
WIRE 2016 1056 1968 1056
WIRE 2016 1056 2016 1024
WIRE 2016 1072 2016 1056
WIRE 2016 1152 2016 1136
WIRE 2080 944 2016 944
WIRE 2080 1056 2016 1056
WIRE 2224 944 2144 944
WIRE 2224 1056 2160 1056
WIRE 2224 1056 2224 944
WIRE 2224 1088 2224 1056
WIRE 2224 1184 1968 1184
WIRE 2224 1184 2224 1168
WIRE 2224 1200 2224 1184
WIRE 2224 1296 2224 1280
WIRE 2336 1056 2224 1056
WIRE 2336 1136 2336 1056
WIRE 2336 1296 2336 1200
WIRE 2448 1056 2336 1056
WIRE 2448 1136 2448 1056
WIRE 2448 1296 2448 1216
FLAG 1824 1296 0
FLAG 2224 1296 0
FLAG 2016 1152 0
FLAG 2336 1296 0
FLAG 1392 1296 0
FLAG 2448 1296 0
FLAG 2448 1056 OUT
FLAG 1568 1296 0
FLAG 1488 1296 0
FLAG 1392 1056 IN
SYMBOL cap 2000 960 R0
SYMATTR InstName C1
SYMATTR Value .01µ
SYMBOL ind 2064 1072 R270
WINDOW 0 32 56 VTop 0
WINDOW 3 5 56 VBottom 0
SYMATTR InstName L1
SYMATTR Value 10µ
SYMATTR SpiceLine Ipk=1.15 Rser=0.182 Rpar=0 Cpar=0 mfg="Sumida" pn="CD43-100"
SYMBOL RES 2208 1072 R0
SYMATTR InstName R1
SYMATTR Value 16.5K
SYMBOL res 2208 1296 M180
WINDOW 0 36 76 Left 0
WINDOW 3 36 40 Left 0
SYMATTR InstName R2
SYMATTR Value 10K
SYMBOL schottky 2000 1136 M180
WINDOW 0 41 51 Left 0
WINDOW 3 24 0 Left 0
SYMATTR InstName D1
SYMATTR Value MBR0530L
SYMBOL schottky 2144 928 R90
WINDOW 0 0 32 VBottom 0
WINDOW 3 32 32 VTop 0
SYMATTR InstName D2
SYMATTR Value 1N4148
SYMBOL VOLTAGE 1392 1136 R0
WINDOW 123 0 0 Left 0
WINDOW 39 0 0 Left 0
SYMATTR InstName V1
SYMATTR Value 12
SYMBOL cap 2320 1136 R0
SYMATTR InstName C2
SYMATTR Value 10µ
SYMATTR SpiceLine Rser=10m
SYMBOL POWERPRODUCTS\\LT1616 1824 1120 R0
SYMATTR InstName U1
SYMBOL cap 1552 1200 R0
WINDOW 3 26 55 Left 0
SYMATTR Value 1µ
SYMATTR InstName C3
SYMATTR SpiceLine Rser=9m
SYMBOL RES 1552 1056 R0
SYMATTR InstName R3
SYMATTR Value 15K
SYMBOL cap 1472 1152 R0
SYMATTR InstName C4
SYMATTR Value 1µ
SYMATTR SpiceLine Rser=10m
SYMBOL res 2432 1120 R0
SYMATTR InstName R4
SYMATTR Value 11
TEXT 1976 1296 Left 0 !.tran 2m startup
TEXT 1272 1328 Left 0 ;Note:\n  If the simulation model is not found please update with the "Sync Release" command from the "Tools" menu.\n  It remains the customer's responsibility to verify proper and reliable operation in the actual application.\n  Component substitution and printed circuit board layout may significantly affect circuit performance or reliability.\n  Contact your local sales representative for assistance. This circuit is distributed to customers only for use with LTC parts.\n  Copyright © 2006 Linear Technology Inc. All rights reserved.
TEXT 1848 920 Bottom 0 ;LT1616 -   600mA 1.4MHz Step-Down Switching Regulator\nInput: 12V     Output: 3.3V @ 300mA
