Version 4
SHEET 1 5868 1960
WIRE 1296 1296 1296 1264
WIRE 1296 1408 1296 1376
WIRE 1392 1264 1296 1264
WIRE 1392 1296 1392 1264
WIRE 1392 1408 1392 1360
WIRE 1472 1264 1392 1264
WIRE 1472 1472 1472 1264
WIRE 1504 1472 1472 1472
WIRE 1568 1264 1472 1264
WIRE 1568 1344 1568 1264
WIRE 1600 1264 1568 1264
WIRE 1648 1616 1648 1600
WIRE 1728 1264 1680 1264
WIRE 1728 1344 1728 1264
WIRE 1760 1264 1728 1264
WIRE 1856 1264 1824 1264
WIRE 1856 1296 1856 1264
WIRE 1856 1408 1856 1376
WIRE 1936 1264 1856 1264
WIRE 2048 1264 2000 1264
WIRE 2048 1328 2048 1264
WIRE 2048 1472 1792 1472
WIRE 2048 1472 2048 1408
WIRE 2048 1488 2048 1472
WIRE 2048 1584 2048 1568
WIRE 2144 1264 2048 1264
WIRE 2144 1328 2144 1264
WIRE 2144 1472 2048 1472
WIRE 2144 1472 2144 1392
WIRE 2224 1264 2144 1264
WIRE 2224 1312 2224 1264
WIRE 2224 1424 2224 1376
WIRE 2320 1264 2224 1264
WIRE 2320 1296 2320 1264
WIRE 2320 1424 2320 1376
FLAG 1648 1616 0
FLAG 1296 1264 IN
FLAG 2320 1264 OUT
FLAG 1856 1408 0
FLAG 1296 1408 0
FLAG 1392 1408 0
FLAG 2048 1584 0
FLAG 2224 1424 0
FLAG 2320 1424 0
SYMBOL VOLTAGE 1296 1280 R0
SYMATTR InstName V1
SYMATTR Value 2.5
SYMBOL PowerProducts\\LT1615 1648 1472 R0
SYMATTR InstName U1
SYMBOL ind2 1584 1280 R270
WINDOW 0 32 56 VTop 0
WINDOW 3 5 56 VBottom 0
SYMATTR InstName L1
SYMATTR Value 10µ
SYMATTR SpiceLine Rser=1 Rpar=942
SYMATTR Type ind
SYMBOL schottky 1936 1280 R270
WINDOW 0 32 32 VTop 0
WINDOW 3 0 32 VBottom 0
SYMATTR InstName D1
SYMATTR Value MBR0520L
SYMATTR Description Diode
SYMATTR Type diode
SYMBOL res 2032 1312 R0
SYMATTR InstName R1
SYMATTR Value 1Meg
SYMBOL res 2032 1472 R0
SYMATTR InstName R2
SYMATTR Value 604K
SYMBOL cap 1376 1296 R0
SYMATTR InstName C1
SYMATTR Value 4.7µ
SYMATTR SpiceLine Rser=0.003
SYMBOL cap 2128 1328 R0
SYMATTR InstName C2
SYMATTR Value 4.7p
SYMBOL cap 2208 1312 R0
SYMATTR InstName C3
SYMATTR Value 10µ
SYMATTR SpiceLine Rser=0.001
SYMBOL current 2320 1296 R0
WINDOW 123 0 0 Left 0
WINDOW 39 24 116 Left 0
SYMATTR SpiceLine load
SYMATTR InstName I1
SYMATTR Value 50m
SYMBOL cap 1824 1248 R90
WINDOW 0 0 32 VBottom 0
WINDOW 3 32 32 VTop 0
SYMATTR InstName C4
SYMATTR Value 1µ
SYMATTR SpiceLine Rser=0.009
SYMBOL ind2 1840 1392 M180
WINDOW 0 36 80 Left 0
WINDOW 3 36 40 Left 0
SYMATTR InstName L2
SYMATTR Value 10µ
SYMATTR SpiceLine Rser=1 Rpar=942
SYMATTR Type ind
TEXT 2174 1536 Left 0 !.tran 1m startup
TEXT 1816 1168 Center 0 ;LT1615 - µPower Step-up DC/DC Converters in ThinSOT\nInput: 2.5V to 4.2V      Output: 3.3V @ 50mA
TEXT 1216 1632 Left 0 ;Note:\n  If the simulation model is not found please update with the "Sync Release" command from the "Tools" menu.\n  It remains the customer's responsibility to verify proper and reliable operation in the actual application.\n  Component substitution and printed circuit board layout may significantly affect circuit performance or reliability\n  Contact your local sales representative for assistance. This circuit is distributed to customers only for use with LTC parts\n  Copyright © 2006 Linear Technology Inc. All rights reserved.
