Version 4
SHEET 1 5868 1960
WIRE 1264 1296 1264 1264
WIRE 1264 1424 1264 1376
WIRE 1376 1264 1264 1264
WIRE 1376 1312 1376 1264
WIRE 1376 1424 1376 1376
WIRE 1472 1264 1376 1264
WIRE 1472 1472 1472 1264
WIRE 1504 1472 1472 1472
WIRE 1568 1264 1472 1264
WIRE 1568 1344 1568 1264
WIRE 1600 1264 1568 1264
WIRE 1648 1616 1648 1600
WIRE 1728 1264 1680 1264
WIRE 1728 1344 1728 1264
WIRE 1776 1264 1728 1264
WIRE 1888 1264 1840 1264
WIRE 1888 1328 1888 1264
WIRE 1888 1472 1792 1472
WIRE 1888 1472 1888 1408
WIRE 1888 1488 1888 1472
WIRE 1888 1616 1888 1568
WIRE 2000 1264 1888 1264
WIRE 2000 1440 2000 1264
WIRE 2000 1616 2000 1504
WIRE 2112 1264 2000 1264
WIRE 2112 1424 2112 1264
WIRE 2112 1616 2112 1504
FLAG 1648 1616 0
FLAG 1264 1264 IN
FLAG 2112 1264 OUT
FLAG 1264 1424 0
FLAG 1376 1424 0
FLAG 1888 1616 0
FLAG 2000 1616 0
FLAG 2112 1616 0
SYMBOL VOLTAGE 1264 1280 R0
WINDOW 123 0 0 Left 0
WINDOW 39 0 0 Left 0
SYMATTR InstName V1
SYMATTR Value 1
SYMBOL ind 1584 1280 R270
WINDOW 0 32 56 VTop 0
WINDOW 3 5 56 VBottom 0
SYMATTR InstName L1
SYMATTR Value 22µ
SYMATTR SpiceLine Rser=0.71 Rpar=5K
SYMBOL res 1872 1312 R0
SYMATTR InstName R1
SYMATTR Value 1Meg
SYMBOL res 1872 1472 R0
SYMATTR InstName R2
SYMATTR Value 604K
SYMBOL cap 1360 1312 R0
SYMATTR InstName C1
SYMATTR Value 4.7µ
SYMATTR SpiceLine Rser=0.003
SYMBOL cap 1984 1440 R0
SYMATTR InstName C3
SYMATTR Value 10µ
SYMATTR SpiceLine Rser=0.01
SYMBOL current 2112 1424 R0
WINDOW 123 0 0 Left 0
WINDOW 39 24 116 Left 0
SYMATTR SpiceLine load
SYMATTR InstName I1
SYMATTR Value 15m
SYMBOL schottky 1776 1280 R270
WINDOW 0 32 32 VTop 0
WINDOW 3 0 32 VBottom 0
SYMATTR InstName D1
SYMATTR Value CMDSH2-3
SYMATTR Description Diode
SYMATTR Type diode
SYMBOL PowerProducts\\LT1615-1 1648 1472 R0
SYMATTR InstName U1
TEXT 1262 1560 Left 0 !.tran 4m startup
TEXT 1720 1216 Bottom 0 ;LT1615-1 - µPower Step-up DC/DC Converter in ThinSOT\nInput: 1V to 1.5V      Output: 3.3V@15mA
TEXT 1144 1632 Left 0 ;Note:\n  If the simulation model is not found please update with the "Sync Release" command from the "Tools" menu.\n  It remains the customer's responsibility to verify proper and reliable operation in the actual application.\n  Component substitution and printed circuit board layout may significantly affect circuit performance or reliability\n  Contact your local sales representative for assistance. This circuit is distributed to customers only for use with LTC parts\n  Copyright © 2006 Linear Technology Inc. All rights reserved.
