Version 4
SHEET 1 1296 680
WIRE -80 48 -288 48
WIRE -16 48 -80 48
WIRE 16 48 -16 48
WIRE 320 48 304 48
WIRE 384 48 320 48
WIRE 480 48 384 48
WIRE -288 64 -288 48
WIRE 480 64 480 48
WIRE -80 80 -80 48
WIRE 384 80 384 48
WIRE -16 144 -16 48
WIRE 16 144 -16 144
WIRE 320 144 320 48
WIRE 320 144 304 144
WIRE -288 160 -288 144
WIRE -80 160 -80 144
WIRE 384 160 384 144
WIRE 480 160 480 144
WIRE 160 240 160 208
FLAG -288 160 0
FLAG 384 160 0
FLAG 480 160 0
FLAG 160 240 0
FLAG 480 48 OUT
FLAG -288 48 IN
FLAG -80 160 0
SYMBOL voltage -288 48 R0
SYMATTR InstName V1
SYMATTR Value PWL(0 0 1 20)
SYMBOL cap 368 80 R0
SYMATTR InstName C1
SYMATTR Value 10µ
SYMBOL res 464 48 R0
SYMATTR InstName Rload
SYMATTR Value .84
SYMBOL PowerProducts\\LT1764-2.5 160 96 R0
SYMATTR InstName U1
SYMBOL cap -96 80 R0
SYMATTR InstName C2
SYMATTR Value 10µ
TEXT 368 224 Left 2 !.tran 1
TEXT 152 -128 Top 2 ;LT1764 - 3A, Fast Transient Response, Low Noise, LDO\n3.3Vin to 2.5Vout  Low Noise Regulator\nInput: 3.5V to 16V     Output: 2.5V @ 3A
TEXT -416 248 Left 2 ;Note:\n  If the simulation model is not found please update with the "Sync Release" command from the "Tools" menu.\n  It remains the customer's responsibility to verify proper and reliable operation in the actual application.\n  Component substitution and printed circuit board layout may significantly affect circuit performance or reliability.\n  Contact your local sales representative for assistance. This circuit is distributed to customers only for use with LTC parts.\n  Copyright © 2012 Linear Technology Inc. All rights reserved.
