Version 4
SHEET 1 2980 1924
WIRE 1552 1360 1552 1296
WIRE 1552 1488 1552 1440
WIRE 1552 1632 1552 1600
WIRE 1552 1712 1552 1696
WIRE 1600 1600 1552 1600
WIRE 1648 1296 1552 1296
WIRE 1648 1360 1648 1296
WIRE 1648 1488 1648 1424
WIRE 1696 1600 1680 1600
WIRE 1696 1632 1696 1600
WIRE 1696 1712 1696 1696
WIRE 1744 1440 1728 1440
WIRE 1744 1520 1728 1520
WIRE 1744 1600 1696 1600
WIRE 1824 1296 1648 1296
WIRE 1824 1360 1824 1296
WIRE 1904 1712 1904 1680
WIRE 1984 1360 1984 1296
WIRE 2096 1296 1984 1296
WIRE 2096 1328 2096 1296
WIRE 2096 1440 2064 1440
WIRE 2096 1440 2096 1392
WIRE 2160 1440 2096 1440
WIRE 2160 1440 2160 1392
WIRE 2208 1296 2096 1296
WIRE 2208 1392 2160 1392
WIRE 2208 1408 2208 1392
WIRE 2208 1488 2208 1472
WIRE 2304 1392 2208 1392
WIRE 2416 1296 2272 1296
WIRE 2416 1392 2384 1392
WIRE 2416 1392 2416 1296
WIRE 2416 1520 2064 1520
WIRE 2416 1520 2416 1392
WIRE 2416 1600 2064 1600
WIRE 2416 1616 2416 1600
WIRE 2416 1712 2416 1696
WIRE 2496 1392 2416 1392
WIRE 2496 1408 2496 1392
WIRE 2496 1504 2496 1472
WIRE 2608 1392 2496 1392
WIRE 2608 1408 2608 1392
WIRE 2608 1504 2608 1488
FLAG 2208 1488 0
FLAG 2416 1712 0
FLAG 2496 1504 0
FLAG 2608 1504 0
FLAG 1904 1712 0
FLAG 1552 1712 0
FLAG 1552 1488 0
FLAG 1648 1488 0
FLAG 1696 1712 0
FLAG 1552 1296 IN
FLAG 2608 1392 OUT
SYMBOL ind 2288 1408 R270
WINDOW 0 32 56 VTop 0
WINDOW 3 5 56 VBottom 0
SYMATTR InstName L1
SYMATTR Value 47µ
SYMATTR SpiceLine Rser=.100
SYMBOL cap 1536 1696 M180
WINDOW 0 24 64 Left 0
WINDOW 3 24 8 Left 0
SYMATTR InstName C1
SYMATTR Value .022µ
SYMBOL cap 2080 1392 M180
WINDOW 0 24 64 Left 0
WINDOW 3 24 8 Left 0
SYMATTR InstName C2
SYMATTR Value .33µ
SYMBOL schottky 2192 1472 M180
WINDOW 0 35 62 Left 0
WINDOW 3 24 0 Left 0
SYMATTR InstName D1
SYMATTR Value 30BQ060
SYMBOL polcap 2480 1408 R0
SYMATTR InstName C3
SYMATTR Value 100µ
SYMATTR SpiceLine Rser=.1
SYMBOL RES 2400 1504 R0
SYMATTR InstName R1
SYMATTR Value 15.4K
SYMBOL res 2400 1600 R0
SYMATTR InstName R2
SYMATTR Value 4.99K
SYMBOL diode 2272 1280 R90
WINDOW 0 0 32 VBottom 0
WINDOW 3 32 32 VTop 0
SYMATTR InstName D2
SYMATTR Value MMSD4148
SYMBOL VOLTAGE 1552 1344 R0
WINDOW 123 0 0 Left 0
WINDOW 39 0 0 Left 0
SYMATTR InstName V1
SYMATTR Value 12
SYMBOL cap 1680 1632 R0
SYMATTR InstName C5
SYMATTR Value 220p
SYMBOL res 1696 1584 R90
WINDOW 0 0 56 VBottom 0
WINDOW 3 32 56 VTop 0
SYMATTR InstName R4
SYMATTR Value 3.3K
SYMBOL cap 1632 1360 R0
SYMATTR InstName C4
SYMATTR Value 2.2µ
SYMBOL res 2592 1392 R0
SYMATTR InstName Rload
SYMATTR Value 5
SYMBOL PowerProducts\\LT1766 1904 1520 R0
SYMATTR InstName U1
TEXT 2176 1672 Left 0 !.tran 2m startup
TEXT 1488 1768 Left 0 ;Note:\n  If the simulation model is not found please update with the "Sync Release" command from the "Tools" menu.\n  It remains the customer's responsibility to verify proper and reliable operation in the actual application.\n  Component substitution and printed circuit board layout may significantly affect circuit performance or reliability\n  Contact your local sales representative for assistance. This circuit is distributed to customers only for use with LTC parts\n  Copyright © 2006 Linear Technology Inc. All rights reserved.
TEXT 2088 1240 Bottom 0 ;LT1766 - High Voltage 60V 1.5A Peak Switch Current 200kHz Monolithic Step-Down Switching Regulator\nInput: 12V      Output: 5V @ 1A
