Version 4
SHEET 1 1016 812
WIRE -80 -112 -144 -112
WIRE 96 -112 0 -112
WIRE -16 -32 -16 -48
WIRE -16 -32 -48 -32
WIRE -48 -16 -48 -32
WIRE -16 -16 -16 -32
WIRE -256 16 -336 16
WIRE -240 16 -256 16
WIRE -144 16 -144 -112
WIRE -144 16 -160 16
WIRE -64 16 -144 16
WIRE -336 32 -336 16
WIRE -144 32 -144 16
WIRE 96 32 96 -112
WIRE 96 32 16 32
WIRE -64 48 -80 48
WIRE 96 48 96 32
WIRE -48 96 -48 80
WIRE -16 96 -16 80
WIRE -16 96 -48 96
WIRE -336 128 -336 112
WIRE -144 128 -144 112
WIRE -80 144 -80 48
WIRE 96 144 96 128
WIRE 96 144 -80 144
WIRE 96 160 96 144
WIRE -256 192 -256 16
WIRE 16 208 -16 208
WIRE -16 224 -16 208
WIRE 16 224 16 208
WIRE 96 240 96 224
WIRE -80 256 -80 144
WIRE -32 256 -80 256
WIRE 144 272 48 272
WIRE -384 288 -496 288
WIRE -256 288 -256 272
WIRE -256 288 -304 288
WIRE -32 288 -256 288
WIRE -496 304 -496 288
WIRE -256 304 -256 288
WIRE -16 336 -16 320
WIRE 16 336 16 320
WIRE 16 336 -16 336
WIRE 16 352 16 336
WIRE -496 400 -496 384
WIRE -256 400 -256 384
FLAG -336 128 0
FLAG -336 16 +V
FLAG 16 208 +V
FLAG -496 400 0
FLAG 16 352 0
FLAG -16 96 +V
FLAG -16 -48 0
FLAG -144 128 0
FLAG 96 240 0
FLAG -256 400 0
FLAG 144 272 OUT
FLAG -496 288 IN
SYMBOL voltage -336 16 R0
SYMATTR InstName V1
SYMATTR Value 5
SYMBOL voltage -496 288 R0
WINDOW 3 17 101 Left 2
WINDOW 123 0 0 Left 2
WINDOW 39 0 0 Left 2
SYMATTR Value SINE(2.5 2.3 10K)
SYMATTR InstName V3
SYMBOL LT1715 0 272 R0
SYMATTR InstName U2
SYMBOL LT1715 -32 32 M180
SYMATTR InstName U1
SYMBOL res -144 0 R90
WINDOW 0 0 56 VBottom 2
WINDOW 3 32 56 VTop 2
SYMATTR InstName R1
SYMATTR Value 2K
SYMBOL res -160 16 R0
SYMATTR InstName R2
SYMATTR Value 2K
SYMBOL res 16 -128 R90
WINDOW 0 0 56 VBottom 2
WINDOW 3 32 56 VTop 2
SYMATTR InstName R3
SYMATTR Value 6.98K
SYMBOL res 80 32 R0
SYMATTR InstName R4
SYMATTR Value 10K
SYMBOL cap 80 160 R0
SYMATTR InstName C1
SYMATTR Value 220p
SYMBOL res -272 176 R0
SYMATTR InstName R5
SYMATTR Value 2K
SYMBOL res -272 288 R0
SYMATTR InstName R6
SYMATTR Value 2K
SYMBOL res -288 272 R90
WINDOW 0 0 56 VBottom 2
WINDOW 3 32 56 VTop 2
SYMATTR InstName R7
SYMATTR Value 6.98K
TEXT 88 376 Left 2 !.tran 100u
TEXT -72 -160 Bottom 2 ;LT1715 - 4ns, 150MHz Dual Comparator with Independent Input/Output Supplies\nRail-to-Rail 1MHz Pulse Width Modulator\nInput: 0V to 5V     Output: 880kHz PWM
TEXT -720 416 Left 2 ;Note:\n  If the simulation model is not found please update with the "Sync Release" command from the "Tools" menu.\n  It remains the customer's responsibility to verify proper and reliable operation in the actual application.\n  Component substitution and printed circuit board layout may significantly affect circuit performance or reliability.\n  Contact your local sales representative for assistance. This circuit is distributed to customers only for use with LTC parts.\n  Copyright © 2015 Linear Technology Inc. All rights reserved.
