Version 4
SHEET 1 1996 1396
WIRE -544 496 -1056 496
WIRE -448 496 -544 496
WIRE -368 496 -448 496
WIRE -112 496 -288 496
WIRE -48 496 -112 496
WIRE -1056 512 -1056 496
WIRE -544 512 -544 496
WIRE -48 512 -48 496
WIRE -256 560 -432 560
WIRE -128 560 -192 560
WIRE -1056 608 -1056 592
WIRE -544 608 -544 592
WIRE -48 608 -48 592
WIRE -432 656 -432 560
WIRE -400 656 -432 656
WIRE -128 656 -128 560
WIRE -128 656 -144 656
WIRE -448 720 -448 496
WIRE -400 720 -448 720
WIRE -112 720 -112 496
WIRE -112 720 -144 720
WIRE -112 784 -144 784
WIRE 0 784 -32 784
WIRE -400 848 -416 848
WIRE 80 848 -144 848
WIRE 80 864 80 848
WIRE 80 944 80 928
FLAG -416 848 0
FLAG 80 944 0
FLAG 0 784 0
FLAG -48 608 0
FLAG -544 608 0
FLAG -1056 608 0
FLAG 80 848 OUT
FLAG -48 496 IN
SYMBOL Opamps\\LT1787 -272 752 R0
SYMATTR InstName U1
SYMBOL res -272 480 R90
WINDOW 0 0 56 VBottom 2
WINDOW 3 32 56 VTop 2
SYMATTR InstName R1
SYMATTR Value .8
SYMBOL cap 64 864 R0
SYMATTR InstName C1
SYMATTR Value .1µ
SYMBOL voltage -128 784 R270
WINDOW 123 -74 56 VBottom 2
WINDOW 39 -53 56 VBottom 2
WINDOW 0 32 56 VTop 2
WINDOW 3 -32 56 VBottom 2
SYMATTR InstName V1
SYMATTR Value 2.5
SYMBOL cap -192 544 R90
WINDOW 0 0 32 VBottom 2
WINDOW 3 32 32 VTop 2
SYMATTR InstName C2
SYMATTR Value 1µ
SYMBOL voltage -48 496 R0
WINDOW 123 0 0 Left 2
WINDOW 39 0 0 Left 2
SYMATTR InstName V2
SYMATTR Value 5
SYMBOL res -560 496 R0
SYMATTR InstName R2
SYMATTR Value 2000
SYMBOL load2 -1056 512 R0
WINDOW 123 0 0 Left 2
WINDOW 39 0 0 Left 2
WINDOW 0 41 2 Left 2
SYMATTR InstName ILoad
SYMATTR Value PULSE(-250m 250m 0 1u 1u .02 .04)
TEXT 168 872 Left 2 !.tran .2 startup
TEXT -480 440 Bottom 2 ;LT1787 - Precision, High Side Current Sense Amplifiers\nBidirectional Currrent Sense Amplifier with Offset Bipolar Output\nInput: 2.5V to 60V     Rsense: .8ohm Shunt with ±250mA     Bias: 2.5V    Output: 2.5V±1.6V (Gain of 8)
TEXT -1072 960 Left 2 ;Note:\n  If the simulation model is not found please update with the "Sync Release" command from the "Tools" menu.\n  It remains the customer's responsibility to verify proper and reliable operation in the actual application.\n  Component substitution and printed circuit board layout may significantly affect circuit performance or reliability.\n  Contact your local sales representative for assistance. This circuit is distributed to customers only for use with LTC parts.\n  Copyright © 2012 Linear Technology Inc. All rights reserved.
