Version 4
SHEET 1 5868 1960
WIRE 1824 1232 1632 1232
WIRE 2000 1232 1824 1232
WIRE 2176 1232 2064 1232
WIRE 1824 1248 1824 1232
WIRE 1632 1328 1632 1232
WIRE 1824 1328 1824 1312
WIRE 1888 1328 1824 1328
WIRE 1952 1328 1888 1328
WIRE 2064 1328 2032 1328
WIRE 2176 1328 2176 1232
WIRE 2176 1328 2064 1328
WIRE 2288 1328 2176 1328
WIRE 1888 1344 1888 1328
WIRE 2176 1344 2176 1328
WIRE 2288 1344 2288 1328
WIRE 2064 1360 2064 1328
WIRE 1360 1392 1264 1392
WIRE 1456 1392 1360 1392
WIRE 1488 1392 1456 1392
WIRE 1824 1392 1824 1328
WIRE 1824 1392 1776 1392
WIRE 1264 1424 1264 1392
WIRE 1360 1424 1360 1392
WIRE 1888 1424 1888 1408
WIRE 2176 1440 2176 1408
WIRE 2288 1440 2288 1424
WIRE 1456 1456 1456 1392
WIRE 1488 1456 1456 1456
WIRE 2064 1456 2064 1440
WIRE 2064 1456 1776 1456
WIRE 2064 1488 2064 1456
WIRE 1808 1520 1776 1520
WIRE 1840 1520 1808 1520
WIRE 1936 1520 1920 1520
WIRE 1264 1536 1264 1504
WIRE 1360 1536 1360 1488
WIRE 1808 1536 1808 1520
WIRE 2064 1600 2064 1568
WIRE 1632 1616 1632 1584
WIRE 1808 1616 1808 1600
WIRE 1936 1616 1936 1584
FLAG 1936 1616 0
FLAG 1632 1616 0
FLAG 1264 1536 0
FLAG 2288 1440 0
FLAG 2064 1600 0
FLAG 2176 1440 0
FLAG 2288 1328 OUT
FLAG 1888 1424 0
FLAG 1360 1536 0
FLAG 1264 1392 IN
FLAG 1808 1616 0
SYMBOL VOLTAGE 1264 1408 R0
WINDOW 123 0 0 Left 2
WINDOW 39 24 132 Left 2
SYMATTR InstName V1
SYMATTR Value 12
SYMBOL CURRENT 2288 1344 R0
WINDOW 123 0 0 Left 2
WINDOW 39 35 104 Left 2
WINDOW 3 28 75 Left 2
SYMATTR SpiceLine load
SYMATTR Value 1
SYMATTR InstName I1
SYMBOL cap 1344 1424 R0
SYMATTR InstName C1
SYMATTR Value 2.2µ
SYMATTR SpiceLine Rser=0.025
SYMBOL cap 2160 1344 R0
SYMATTR InstName C2
SYMATTR Value 4.7µ
SYMATTR SpiceLine Rser=0.020
SYMBOL PowerProducts\\LT1767 1632 1456 R0
SYMATTR InstName U1
SYMBOL res 2048 1472 R0
SYMATTR InstName R1
SYMATTR Value 10K
SYMBOL res 2048 1344 R0
SYMATTR InstName R2
SYMATTR Value 17.4K
SYMBOL schottky 1872 1408 M180
WINDOW 0 35 62 Left 2
WINDOW 3 24 0 Left 2
SYMATTR InstName D1
SYMATTR Value MBRS140
SYMATTR Description Diode
SYMATTR Type diode
SYMBOL schottky 2064 1216 R90
WINDOW 0 0 32 VBottom 2
WINDOW 3 32 32 VTop 2
SYMATTR InstName D2
SYMATTR Value CMDSH2-3
SYMATTR Description Diode
SYMATTR Type diode
SYMBOL ind 1936 1344 R270
WINDOW 0 32 56 VTop 2
WINDOW 3 5 56 VBottom 2
SYMATTR InstName L1
SYMATTR Value 4.7µ
SYMATTR SpiceLine Rser=.05
SYMBOL cap 1808 1248 R0
SYMATTR InstName C3
SYMATTR Value .1µ
SYMBOL cap 1920 1520 R0
SYMATTR InstName C4
SYMATTR Value 2200p
SYMBOL cap 1792 1536 R0
SYMATTR InstName C5
SYMATTR Value 100p
SYMBOL res 1824 1536 R270
WINDOW 0 32 56 VTop 2
WINDOW 3 0 56 VBottom 2
SYMATTR InstName R3
SYMATTR Value 3.3K
TEXT 2176 1584 Left 2 !.tran 100u startup
TEXT 1768 1168 Center 2 ;LT1767 - 1.5A, 1.25MHz, Wide Input Range Step-Down DC/DC Converter\nInput: 4.5V to 18V     Output: 3.3V @ 1A
TEXT 1184 1640 Left 2 ;Note:\n  If the simulation model is not found please update with the "Sync Release" command from the "Tools" menu.\n  It remains the customer's responsibility to verify proper and reliable operation in the actual application.\n  Component substitution and printed circuit board layout may significantly affect circuit performance or reliability\n  Contact your local sales representative for assistance. This circuit is distributed to customers only for use with LTC parts\n  Copyright © 2006 Linear Technology Inc. All rights reserved.
