Version 4
SHEET 1 1148 680
WIRE 400 32 320 32
WIRE 464 32 400 32
WIRE 560 32 464 32
WIRE 656 32 560 32
WIRE -48 48 -256 48
WIRE 16 48 -48 48
WIRE 32 48 16 48
WIRE 464 48 464 32
WIRE 560 48 560 32
WIRE 656 48 656 32
WIRE -256 64 -256 48
WIRE -48 64 -48 48
WIRE 432 96 320 96
WIRE 16 144 16 48
WIRE 32 144 16 144
WIRE 432 144 432 96
WIRE 464 144 464 128
WIRE 464 144 432 144
WIRE 560 144 560 112
WIRE 656 144 656 128
WIRE -256 160 -256 144
WIRE -48 160 -48 128
WIRE 336 160 320 160
WIRE 400 160 400 32
WIRE 464 160 464 144
WIRE 176 240 176 208
WIRE 464 256 464 240
FLAG -256 160 0
FLAG 176 240 0
FLAG 656 32 OUT
FLAG -256 48 IN
FLAG 560 144 0
FLAG 464 256 0
FLAG -48 160 0
FLAG 656 144 0
SYMBOL voltage -256 48 R0
WINDOW 3 32 84 Left 0
WINDOW 0 35 29 Left 0
WINDOW 123 0 0 Left 0
WINDOW 39 0 0 Left 0
SYMATTR Value PWL(0 0 1 20)
SYMATTR InstName V1
SYMBOL cap 544 48 R0
WINDOW 0 41 31 Left 0
SYMATTR InstName C1
SYMATTR Value 10µ
SYMBOL res 448 32 R0
SYMATTR InstName R1
SYMATTR Value 261K
SYMBOL res 448 144 R0
SYMATTR InstName R2
SYMATTR Value 249K
SYMBOL cap 336 176 R270
WINDOW 0 32 32 VTop 0
WINDOW 3 0 32 VBottom 0
SYMATTR InstName C2
SYMATTR Value .01µ
SYMBOL PowerProducts\\LT1762 176 96 R0
WINDOW 0 0 -62 Center 0
WINDOW 3 -41 49 Left 0
SYMATTR InstName U1
SYMBOL cap -64 64 R0
SYMATTR InstName C3
SYMATTR Value 1µ
SYMBOL res 640 32 R0
SYMATTR InstName Rload
SYMATTR Value 16.7
TEXT 536 256 Left 0 !.tran 1 startup
TEXT -328 280 Left 0 ;Note:\n  If the simulation model is not found please update with the "Sync Release" command from the "Tools" menu.\n  It remains the customer's responsibility to verify proper and reliable operation in the actual application.\n  Component substitution and printed circuit board layout may significantly affect circuit performance or reliability.\n  Contact your local sales representative for assistance. This circuit is distributed to customers only for use with LTC parts.\n  Copyright © 2011 Linear Technology Inc. All rights reserved.
TEXT 296 -24 Bottom 0 ;LT1762 - 150mA, Low Noise, LDO µPower Regulators\nInput: 10V     Output: 2.5V @ 150mA
