Version 4
SHEET 1 1148 680
WIRE 368 -32 -48 -32
WIRE -144 48 -352 48
WIRE 32 48 -144 48
WIRE 368 48 368 -32
WIRE 368 48 320 48
WIRE 464 48 368 48
WIRE 560 48 464 48
WIRE -352 64 -352 48
WIRE -144 64 -144 48
WIRE -48 64 -48 -32
WIRE 464 64 464 48
WIRE 560 64 560 48
WIRE -48 144 -48 128
WIRE 32 144 -48 144
WIRE 368 144 368 128
WIRE 368 144 320 144
WIRE -352 160 -352 144
WIRE -144 160 -144 128
WIRE 368 160 368 144
WIRE 464 160 464 128
WIRE 560 160 560 144
WIRE 176 224 176 208
WIRE 368 256 368 240
FLAG -352 160 0
FLAG 176 224 0
FLAG 560 48 OUT
FLAG -352 48 IN
FLAG 464 160 0
FLAG 560 160 0
FLAG 368 256 0
FLAG -144 160 0
SYMBOL voltage -352 48 R0
WINDOW 3 27 86 Left 0
WINDOW 123 0 0 Left 0
WINDOW 39 0 0 Left 0
SYMATTR Value PWL(0 0 1 20)
SYMATTR InstName V1
SYMBOL cap 448 64 R0
WINDOW 0 41 31 Left 0
WINDOW 3 30 62 Left 0
SYMATTR InstName C1
SYMATTR Value 10µ
SYMBOL res 352 32 R0
SYMATTR InstName R1
SYMATTR Value 261K
SYMBOL res 352 144 R0
SYMATTR InstName R2
SYMATTR Value 249K
SYMBOL PowerProducts\\LT1761-BYP 176 96 R0
WINDOW 0 -1 -51 Center 0
WINDOW 3 -63 48 Left 0
SYMATTR InstName U1
SYMBOL cap -64 64 R0
WINDOW 3 30 54 Left 0
WINDOW 0 37 12 Left 0
SYMATTR Value .01µ
SYMATTR InstName C2
SYMBOL cap -160 64 R0
WINDOW 0 40 14 Left 0
WINDOW 3 38 50 Left 0
SYMATTR InstName C3
SYMATTR Value 1µ
SYMBOL res 544 48 R0
SYMATTR InstName Rload
SYMATTR Value 25
TEXT 472 224 Left 0 !.tran 1 startup
TEXT -400 272 Left 0 ;Note:\n  If the simulation model is not found please update with the "Sync Release" command from the "Tools" menu.\n  It remains the customer's responsibility to verify proper and reliable operation in the actual application.\n  Component substitution and printed circuit board layout may significantly affect circuit performance or reliability.\n  Contact your local sales representative for assistance. This circuit is distributed to customers only for use with LTC parts.\n  Copyright © 2011 Linear Technology Inc. All rights reserved.
TEXT 168 -48 Bottom 0 ;LT1761 - 100mA, Low Noise, LDO µPower Regulators in TSOT-23\nInput: 10V     Output: 2.5V @ 100mA
