Version 4
SHEET 1 2120 996
WIRE 176 192 96 192
WIRE 256 192 176 192
WIRE 352 192 256 192
WIRE 400 192 352 192
WIRE 512 192 480 192
WIRE 544 192 512 192
WIRE 640 192 608 192
WIRE 688 192 640 192
WIRE 800 192 768 192
WIRE 912 192 800 192
WIRE 992 192 912 192
WIRE 1072 192 992 192
WIRE 1072 208 1072 192
WIRE 96 224 96 192
WIRE 640 224 640 192
WIRE 992 224 992 192
WIRE 176 240 176 192
WIRE 800 240 800 192
WIRE 352 256 352 192
WIRE 512 256 512 192
WIRE 912 256 912 192
WIRE 992 304 992 288
WIRE 1072 304 1072 288
WIRE 640 320 640 288
WIRE 96 336 96 304
WIRE 176 336 176 304
WIRE 256 352 256 192
WIRE 272 352 256 352
WIRE 800 352 800 320
WIRE 800 352 592 352
WIRE 912 352 912 320
WIRE 912 352 800 352
WIRE 800 368 800 352
WIRE 432 464 432 448
WIRE 800 464 800 448
FLAG 176 336 0
FLAG 96 336 0
FLAG 432 464 0
FLAG 1072 304 0
FLAG 992 304 0
FLAG 800 464 0
FLAG 640 320 0
FLAG 1072 192 OUT
FLAG 96 192 IN
SYMBOL schottky 624 224 R0
SYMATTR InstName D1
SYMATTR Value MBRS140
SYMBOL RES 784 352 R0
SYMATTR InstName R1
SYMATTR Value 10K
SYMBOL RES 784 224 R0
SYMATTR InstName R2
SYMATTR Value 29.4K
SYMBOL VOLTAGE 96 208 R0
SYMATTR InstName V1
SYMATTR Value 5
SYMBOL polcap 544 176 M90
WINDOW 0 0 32 VBottom 0
WINDOW 3 32 32 VTop 0
SYMATTR InstName C1
SYMATTR Value 1µ
SYMBOL ind2 384 208 R270
WINDOW 0 32 56 VTop 0
WINDOW 3 4 56 VBottom 0
SYMATTR InstName L1
SYMATTR Value 10µ
SYMBOL ind2 784 208 M270
WINDOW 0 32 56 VTop 0
WINDOW 3 4 56 VBottom 0
SYMATTR InstName L2
SYMATTR Value 10µ
SYMBOL cap 896 256 R0
SYMATTR InstName C2
SYMATTR Value 220p
SYMBOL cap 160 240 R0
WINDOW 3 24 57 Left 0
SYMATTR Value 4.7µ
SYMATTR InstName C3
SYMATTR SpiceLine V=10 Irms=7.959 Rser=0.005 Lser=0 mfg="KEMET" pn="C1210C475K8PAC" type="X5R"
SYMATTR Description Polarized Capacitor
SYMATTR Type polcap
SYMBOL cap 976 224 R0
WINDOW 3 24 57 Left 0
SYMATTR Value 22µ
SYMATTR InstName C4
SYMATTR SpiceLine V=6.3 Irms=11.588 Rser=0.003 Lser=0 mfg="KEMET" pn="C1206C226K9PAC" type="X5R"
SYMATTR Description Polarized Capacitor
SYMATTR Type polcap
SYMBOL PowerProducts\\LT1931A 432 352 R0
SYMATTR InstName U1
SYMBOL RES 1056 192 R0
SYMATTR InstName Rload
SYMATTR Value 20
TEXT 968 440 Left 0 !.tran 500u startup
TEXT 504 128 Left 0 !K1 L1 L2 1
TEXT -8 496 Left 0 ;Note:\n  If the simulation model is not found please update with the "Sync Release" command from the "Tools" menu.\n  It remains the customer's responsibility to verify proper and reliable operation in the actual application.\n  Component substitution and printed circuit board layout may significantly affect circuit performance or reliability\n  Contact your local sales representative for assistance. This circuit is distributed to customers only for use with LTC parts\n  Copyright © 2011 Linear Technology Inc. All rights reserved.
TEXT 584 104 Bottom 0 ;LT1931 - 350mA Inverting DC/DC Converter\n5V to -5V Inverting Converter Using Coupled Inductors\nInput: 5V     Output: -5V @ 350mA
