Version 4
SHEET 1 2948 1588
WIRE 1472 1120 1472 1040
WIRE 1472 1280 1472 1200
WIRE 1568 1040 1472 1040
WIRE 1568 1136 1568 1040
WIRE 1568 1280 1568 1200
WIRE 1664 1040 1568 1040
WIRE 1664 1056 1664 1040
WIRE 1664 1168 1664 1136
WIRE 1664 1200 1664 1168
WIRE 1664 1280 1664 1264
WIRE 1776 1040 1664 1040
WIRE 1776 1168 1664 1168
WIRE 1920 976 1920 912
WIRE 1920 1280 1920 1232
WIRE 2096 912 1920 912
WIRE 2096 944 2096 912
WIRE 2096 1040 2064 1040
WIRE 2096 1040 2096 1008
WIRE 2096 1056 2096 1040
WIRE 2096 1136 2096 1120
WIRE 2192 912 2096 912
WIRE 2192 1040 2096 1040
WIRE 2304 912 2256 912
WIRE 2304 1040 2272 1040
WIRE 2304 1040 2304 912
WIRE 2304 1056 2304 1040
WIRE 2304 1168 2064 1168
WIRE 2304 1168 2304 1136
WIRE 2304 1184 2304 1168
WIRE 2304 1280 2304 1264
WIRE 2416 1040 2304 1040
WIRE 2416 1072 2416 1040
WIRE 2416 1168 2304 1168
WIRE 2416 1168 2416 1136
WIRE 2528 1040 2416 1040
WIRE 2528 1120 2528 1040
WIRE 2528 1280 2528 1184
WIRE 2608 1040 2528 1040
WIRE 2608 1120 2608 1040
WIRE 2608 1280 2608 1200
FLAG 1920 1280 0
FLAG 2304 1280 0
FLAG 2096 1136 0
FLAG 2528 1280 0
FLAG 1472 1280 0
FLAG 2608 1280 0
FLAG 2608 1040 OUT
FLAG 1664 1280 0
FLAG 1568 1280 0
FLAG 1472 1040 IN
SYMBOL cap 2080 944 R0
SYMATTR InstName C1
SYMATTR Value 0.22µ
SYMBOL ind 2176 1056 R270
WINDOW 0 32 56 VTop 0
WINDOW 3 5 56 VBottom 0
SYMATTR InstName L1
SYMATTR Value 100µ
SYMATTR SpiceLine Rser=1.27 Rpar=3K
SYMBOL RES 2288 1040 R0
SYMATTR InstName R1
SYMATTR Value 1Meg
SYMBOL res 2288 1280 M180
WINDOW 0 36 76 Left 0
WINDOW 3 36 40 Left 0
SYMATTR InstName R2
SYMATTR Value 604K
SYMBOL schottky 2080 1120 M180
WINDOW 0 39 48 Left 0
WINDOW 3 31 2 Left 0
SYMATTR InstName D1
SYMATTR Value MBR0540
SYMBOL schottky 2256 896 R90
WINDOW 0 0 32 VBottom 0
WINDOW 3 32 32 VTop 0
SYMATTR InstName D2
SYMATTR Value CMDSH2-3
SYMBOL VOLTAGE 1472 1104 R0
WINDOW 123 0 0 Left 0
WINDOW 39 0 0 Left 0
SYMATTR InstName V1
SYMATTR Value 10
SYMBOL cap 2512 1120 R0
SYMATTR InstName C2
SYMATTR Value 22µ
SYMATTR SpiceLine Rser=15m
SYMBOL cap 1648 1200 R0
WINDOW 3 26 55 Left 0
SYMATTR Value .1µ
SYMATTR InstName C3
SYMBOL RES 1648 1040 R0
SYMATTR InstName R3
SYMATTR Value 15K
SYMBOL PowerProducts\\LT1934-1 1920 1104 R0
SYMATTR InstName U1
SYMBOL cap 2400 1072 R0
WINDOW 0 41 25 Left 0
WINDOW 3 38 59 Left 0
SYMATTR InstName C4
SYMATTR Value 10p
SYMBOL cap 1552 1136 R0
SYMATTR InstName C5
SYMATTR Value 1µ
SYMATTR SpiceLine Rser=10m
SYMBOL res 2592 1104 R0
SYMATTR InstName R4
SYMATTR Value 73.3
TEXT 2056 1280 Left 0 !.tran 2m startup
TEXT 1472 1320 Left 0 ;Note:\n  If the simulation model is not found please update with the "Sync Release" command from the "Tools" menu.\n  It remains the customer's responsibility to verify proper and reliable operation in the actual application.\n  Component substitution and printed circuit board layout may significantly affect circuit performance or reliability.\n  Contact your local sales representative for assistance. This circuit is distributed to customers only for use with LTC parts.\n  Copyright © 2006 Linear Technology Inc. All rights reserved.
TEXT 1936 880 Bottom 0 ;LT1934-1 - 60mA µPower Step-Down Switching Regulator\nInput: 10V     Output: 3.3V @ 45mA
