Version 4
SHEET 1 1104 740
WIRE -352 48 -448 48
WIRE 96 48 -352 48
WIRE -448 64 -448 48
WIRE -352 64 -352 48
WIRE 96 112 96 48
WIRE -448 160 -448 144
WIRE -352 160 -352 144
WIRE -64 160 -352 160
WIRE 560 160 256 160
WIRE -352 176 -352 160
WIRE -240 240 -256 240
WIRE -160 240 -176 240
WIRE -64 240 -80 240
WIRE 288 240 256 240
WIRE 384 240 288 240
WIRE 448 240 384 240
WIRE 560 240 560 160
WIRE 560 240 528 240
WIRE 672 240 560 240
WIRE 768 240 672 240
WIRE -352 256 -352 240
WIRE 288 256 288 240
WIRE 384 256 384 240
WIRE 672 256 672 240
WIRE 768 256 768 240
WIRE 560 272 560 240
WIRE -208 320 -256 320
WIRE -64 320 -128 320
WIRE 288 320 256 320
WIRE 384 336 384 320
WIRE 672 352 672 320
WIRE 768 352 768 336
WIRE 560 400 560 352
WIRE 560 400 256 400
WIRE 560 416 560 400
WIRE 96 464 96 448
WIRE 560 512 560 496
FLAG 384 336 0
FLAG 672 352 0
FLAG 560 512 0
FLAG -256 240 0
FLAG -448 160 0
FLAG 96 464 0
FLAG 768 352 0
FLAG -256 320 0
FLAG -352 256 0
FLAG 768 240 OUT
FLAG -448 48 IN
SYMBOL ind 432 256 R270
WINDOW 0 32 56 VTop 0
WINDOW 3 5 56 VBottom 0
SYMATTR InstName L1
SYMATTR Value 4.7µ
SYMATTR SpiceLine Rpar=2K
SYMBOL schottky 368 320 M180
WINDOW 0 36 59 Left 0
WINDOW 3 24 0 Left 0
SYMATTR InstName D1
SYMATTR Value MBRS340
SYMATTR Description Diode
SYMATTR Type diode
SYMBOL cap 656 256 R0
SYMATTR InstName C1
SYMATTR Value 22µ
SYMBOL voltage -448 48 R0
SYMATTR InstName V1
SYMATTR Value 24
SYMBOL res 544 256 R0
SYMATTR InstName R1
SYMATTR Value 316K
SYMBOL res 544 400 R0
SYMATTR InstName R2
SYMATTR Value 100K
SYMBOL cap 272 256 R0
WINDOW 3 30 49 Left 0
SYMATTR Value .47µ
SYMATTR InstName C2
SYMBOL cap -176 224 R90
WINDOW 0 0 32 VBottom 0
WINDOW 3 32 32 VTop 0
SYMATTR InstName C3
SYMATTR Value 470p
SYMBOL res -64 224 R90
WINDOW 0 0 56 VBottom 0
WINDOW 3 32 56 VTop 0
SYMATTR InstName R3
SYMATTR Value 14K
SYMBOL res -112 304 R90
WINDOW 0 0 56 VBottom 0
WINDOW 3 32 56 VTop 0
SYMATTR InstName R4
SYMATTR Value 68.1K
SYMBOL res -368 48 R0
SYMATTR InstName R5
SYMATTR Value 100K
SYMBOL cap -368 176 R0
SYMATTR InstName C4
SYMATTR Value .1µ
SYMBOL PowerProducts\\LT1912 96 288 R0
SYMATTR InstName U1
SYMBOL res 752 240 R0
SYMATTR InstName Rload
SYMATTR Value 1.65
TEXT 704 448 Left 0 !.tran 1m startup
TEXT -448 520 Left 0 ;Note:\n  If the simulation model is not found please update with the "Sync Release" command from the "Tools" menu.\n  It remains the customer's responsibility to verify proper and reliable operation in the actual application.\n  Component substitution and printed circuit board layout may significantly affect circuit performance or reliability\n  Contact your local sales representative for assistance. This circuit is distributed to customers only for use with LTC parts\n  Copyright © 2009 Linear Technology Inc. All rights reserved.
TEXT 120 40 Bottom 0 ;LT1912 - 2A, 36V, 500kHz switching regulator \nInput: 24V       Output: 3.3V@2A
