Version 4
SHEET 1 1048 732
WIRE -736 -64 -816 -64
WIRE -336 -64 -736 -64
WIRE -336 -16 -336 -64
WIRE -912 0 -912 -32
WIRE -816 0 -816 -64
WIRE -736 0 -736 -64
WIRE -560 0 -560 -16
WIRE -1136 80 -1136 64
WIRE -336 128 -336 48
WIRE -336 128 -464 128
WIRE -96 128 -336 128
WIRE -336 144 -336 128
WIRE -1136 176 -1136 160
WIRE -416 176 -464 176
WIRE -416 208 -416 176
WIRE -416 208 -464 208
WIRE -336 240 -336 224
WIRE -272 240 -336 240
WIRE -112 240 -192 240
WIRE -912 272 -912 256
WIRE -912 272 -1136 272
WIRE -816 272 -816 256
WIRE -736 272 -736 256
WIRE -736 272 -816 272
WIRE -608 272 -608 256
WIRE -1136 288 -1136 272
WIRE -736 288 -736 272
WIRE -560 288 -560 256
WIRE -224 352 -224 336
WIRE -336 368 -336 240
WIRE -256 368 -336 368
WIRE -1136 384 -1136 368
WIRE -736 384 -736 352
WIRE -112 384 -112 240
WIRE -112 384 -192 384
WIRE -80 384 -112 384
WIRE -256 400 -336 400
WIRE -336 416 -336 400
WIRE -224 432 -224 416
WIRE -336 512 -336 496
WIRE -416 544 -416 208
WIRE -112 544 -112 384
WIRE -112 544 -416 544
FLAG -1136 384 0
FLAG -912 -32 0
FLAG -560 -16 +V
FLAG -608 272 +V
FLAG -224 432 0
FLAG -560 288 0
FLAG -96 128 OUT+
FLAG -80 384 OUT-
FLAG -224 336 +V
FLAG -336 512 0
FLAG -1136 176 0
FLAG -1136 64 +V
FLAG -736 384 0
SYMBOL VOLTAGE -1136 272 R0
WINDOW 123 24 138 Left 2
WINDOW 39 24 117 Left 2
SYMATTR Value2 AC 1
SYMATTR Value PULSE(0 .1 120u 20n 20n 20u)
SYMATTR InstName V1
SYMBOL res -352 128 R0
SYMATTR InstName R1
SYMATTR Value 1K
SYMBOL res -176 224 R90
WINDOW 0 0 56 VBottom 2
WINDOW 3 32 56 VTop 2
SYMATTR InstName R2
SYMATTR Value 1K
SYMBOL VOLTAGE -336 400 R0
WINDOW 123 24 138 Left 2
WINDOW 39 24 117 Left 2
SYMATTR InstName V2
SYMATTR Value 2.5
SYMBOL VOLTAGE -1136 64 R0
WINDOW 123 0 0 Left 2
WINDOW 39 0 0 Left 2
SYMATTR InstName V3
SYMATTR Value 15
SYMBOL Opamps\\LT1997-3 -688 128 R0
SYMATTR InstName U1
SYMBOL cap -352 -16 R0
SYMATTR InstName C1
SYMATTR Value 10p
SYMBOL Opamps\\LT1354 -224 320 R0
SYMATTR InstName U2
SYMBOL cap -752 288 R0
SYMATTR InstName C2
SYMATTR Value 20p
TEXT -80 496 Left 2 !.tran 300u\n;ac oct 10 10 10meg
TEXT -1184 552 Left 2 ;Note:\n  If the simulation model is not found please update with the "Sync Release" command from the "Tools" menu.\n  It remains the customer's responsibility to verify proper and reliable operation in the actual application.\n  Component substitution and printed circuit board layout may significantly affect circuit performance or reliability\n  Contact your local sales representative for assistance. This circuit is distributed to customers only for use with LTC parts\n  Copyright © 2017 Linear Technology Inc. All rights reserved.
TEXT -544 -88 Bottom 2 ;LT1997-3 - Precision, Wide Voltage Range Gain Selectable Amplifier\nConversion of Single Ended Pulse To Differential Output.
