Version 4
SHEET 1 2400 1224
WIRE -448 -224 -560 -224
WIRE -384 -224 -448 -224
WIRE 432 -224 -384 -224
WIRE 832 -224 480 -224
WIRE 864 -224 832 -224
WIRE 992 -224 944 -224
WIRE 1136 -224 992 -224
WIRE 1248 -224 1136 -224
WIRE -560 -208 -560 -224
WIRE -384 -208 -384 -224
WIRE 1248 -208 1248 -224
WIRE 432 -192 432 -224
WIRE 480 -192 480 -224
WIRE 992 -192 992 -224
WIRE 1136 -192 1136 -224
WIRE -128 -128 -256 -128
WIRE -384 -112 -384 -144
WIRE -560 -96 -560 -128
WIRE -256 -96 -256 -128
WIRE 1136 -96 1136 -128
WIRE 1248 -96 1248 -128
WIRE 432 -80 432 -112
WIRE 432 -80 384 -80
WIRE 480 -80 480 -112
WIRE 592 -80 480 -80
WIRE 992 -80 992 -112
WIRE 1104 -80 992 -80
WIRE 592 -64 592 -80
WIRE 832 -64 832 -224
WIRE -448 -48 -448 -224
WIRE 288 -48 256 -48
WIRE 384 -48 384 -80
WIRE 384 -48 352 -48
WIRE 992 -48 992 -80
WIRE -256 0 -256 -16
WIRE 384 0 384 -48
WIRE 544 16 528 16
WIRE 784 16 768 16
WIRE -128 32 -128 -128
WIRE 592 48 592 32
WIRE 832 48 832 32
WIRE 992 48 992 32
WIRE -560 80 -592 80
WIRE -448 80 -448 32
WIRE -448 80 -480 80
WIRE -320 80 -448 80
WIRE 336 80 48 80
WIRE 768 112 768 16
WIRE 1072 112 768 112
WIRE 528 144 528 16
WIRE 1040 144 528 144
WIRE -608 160 -640 160
WIRE -448 160 -528 160
WIRE -416 160 -448 160
WIRE -320 160 -336 160
WIRE 192 160 48 160
WIRE 256 160 192 160
WIRE 384 160 384 96
WIRE 384 160 336 160
WIRE 1104 176 1104 -80
WIRE 1104 176 496 176
WIRE 384 192 384 160
WIRE 656 208 560 208
WIRE 880 208 656 208
WIRE -544 240 -576 240
WIRE -448 240 -448 160
WIRE -448 240 -480 240
WIRE -320 240 -448 240
WIRE 80 240 48 240
WIRE 192 240 192 160
WIRE 192 240 160 240
WIRE 224 240 192 240
WIRE 304 240 288 240
WIRE 560 240 560 208
WIRE 656 240 656 208
WIRE 880 288 880 208
WIRE 384 304 384 272
WIRE -416 320 -496 320
WIRE -320 320 -336 320
WIRE 96 320 48 320
WIRE 176 320 160 320
WIRE 272 320 256 320
WIRE 1040 320 1040 144
WIRE 1040 320 1008 320
WIRE 560 352 560 320
WIRE 656 352 656 320
WIRE 752 352 656 352
WIRE 656 368 656 352
WIRE 1040 384 1008 384
WIRE -480 400 -496 400
WIRE -320 400 -400 400
WIRE 272 400 272 320
WIRE 272 400 48 400
WIRE 496 400 496 176
WIRE 496 400 272 400
WIRE 656 448 656 432
WIRE 1072 448 1072 112
WIRE 1072 448 1008 448
WIRE -416 480 -496 480
WIRE -320 480 -336 480
WIRE 96 480 48 480
WIRE 432 480 160 480
WIRE 656 480 480 480
WIRE 752 480 656 480
WIRE 432 512 432 480
WIRE 480 512 480 480
WIRE 656 512 656 480
WIRE 1040 512 1008 512
WIRE -208 576 -208 544
WIRE -48 576 -48 544
WIRE 880 576 880 544
WIRE 432 624 432 592
WIRE 480 624 480 592
WIRE 656 624 656 592
FLAG -576 240 0
FLAG 1248 -224 OUT
FLAG -208 576 0
FLAG 1136 -96 0
FLAG 592 48 0
FLAG 880 576 0
FLAG 656 448 0
FLAG 432 624 0
FLAG -496 320 0
FLAG -496 400 0
FLAG -496 480 0
FLAG -592 80 0
FLAG -640 160 0
FLAG -560 -96 0
FLAG 256 -48 0
FLAG -256 0 0
FLAG 304 240 0
FLAG 384 304 0
FLAG -48 576 0
FLAG 992 48 0
FLAG 832 48 0
FLAG 1040 512 0
FLAG 1040 384 0
FLAG 656 624 0
FLAG 480 624 0
FLAG 560 352 0
FLAG 1248 -96 0
FLAG -560 -224 IN
FLAG -384 -112 0
SYMBOL res 368 176 R0
SYMATTR InstName R1
SYMATTR Value .015
SYMBOL res 352 144 R90
WINDOW 0 0 56 VBottom 2
WINDOW 3 32 56 VTop 2
SYMATTR InstName R2
SYMATTR Value 47
SYMBOL res 176 224 R90
WINDOW 0 0 56 VBottom 2
WINDOW 3 32 56 VTop 2
SYMATTR InstName R3
SYMATTR Value 1K
SYMBOL cap 224 256 R270
WINDOW 0 32 32 VTop 2
WINDOW 3 0 32 VBottom 2
SYMATTR InstName C1
SYMATTR Value 1n
SYMBOL res -320 464 R90
WINDOW 0 0 56 VBottom 2
WINDOW 3 32 56 VTop 2
SYMATTR InstName R4
SYMATTR Value 39K
SYMBOL res -384 384 R90
WINDOW 0 0 56 VBottom 2
WINDOW 3 32 56 VTop 2
SYMATTR InstName R5
SYMATTR Value 100K
SYMBOL res -320 304 R90
WINDOW 0 0 56 VBottom 2
WINDOW 3 32 56 VTop 2
SYMATTR InstName R6
SYMATTR Value 115K
SYMBOL ind2 416 -208 R0
WINDOW 0 0 40 Right 2
WINDOW 3 2 75 Right 2
SYMATTR InstName L1
SYMATTR Value 360µ
SYMATTR Type ind
SYMATTR SpiceLine Rser=.0125
SYMBOL res -512 144 R90
WINDOW 0 0 56 VBottom 2
WINDOW 3 32 56 VTop 2
SYMATTR InstName R7
SYMATTR Value 158k
SYMBOL res -320 144 R90
WINDOW 0 0 56 VBottom 2
WINDOW 3 32 56 VTop 2
SYMATTR InstName R8
SYMATTR Value 22.1K
SYMBOL res -464 -64 R0
SYMATTR InstName R9
SYMATTR Value 237K
SYMBOL res -464 64 R90
WINDOW 0 0 56 VBottom 2
WINDOW 3 32 56 VTop 2
SYMATTR InstName R10
SYMATTR Value 9.1K
SYMBOL cap -480 224 R90
WINDOW 0 0 32 VBottom 2
WINDOW 3 32 32 VTop 2
SYMATTR InstName C2
SYMATTR Value .05µ
SYMBOL ind2 496 -208 M0
WINDOW 0 -1 43 Right 2
WINDOW 3 -3 74 Right 2
SYMATTR InstName L2
SYMATTR Value 10µ
SYMATTR Type ind
SYMATTR SpiceLine Rser=.002
SYMBOL ind 848 -208 R270
WINDOW 0 32 56 VTop 2
WINDOW 3 5 56 VBottom 2
SYMATTR InstName L3
SYMATTR Value 1.2µ
SYMATTR SpiceLine Rser=.002
SYMBOL cap 1120 -192 R0
SYMATTR InstName C3
SYMATTR Value 470µ
SYMATTR SpiceLine Rser=.010
SYMBOL res 976 -208 R0
SYMATTR InstName R11
SYMATTR Value 20.47K
SYMBOL res 976 -64 R0
SYMATTR InstName R12
SYMATTR Value 12.1K
SYMBOL cap 352 -64 R90
WINDOW 0 0 32 VBottom 2
WINDOW 3 32 32 VTop 2
SYMATTR InstName C4
SYMATTR Value 330p
SYMBOL cap 160 304 R90
WINDOW 0 0 32 VBottom 2
WINDOW 3 32 32 VTop 2
SYMATTR InstName C5
SYMATTR Value 470p
SYMBOL ind2 416 496 R0
WINDOW 0 -1 38 Right 2
WINDOW 3 -2 72 Right 2
SYMATTR InstName L4
SYMATTR Value 400µ
SYMBOL ind2 496 608 R180
WINDOW 0 -3 67 Right 2
WINDOW 3 -3 38 Right 2
SYMATTR InstName L5
SYMATTR Value 676µ
SYMBOL cap 160 464 R90
WINDOW 0 0 32 VBottom 2
WINDOW 3 32 32 VTop 2
SYMATTR InstName C6
SYMATTR Value 220p
SYMBOL res 640 496 R0
SYMATTR InstName R13
SYMATTR Value 560
SYMBOL cap 640 368 R0
SYMATTR InstName C7
SYMATTR Value 470p
SYMBOL res 640 224 R0
SYMATTR InstName R14
SYMATTR Value 47.5K
SYMBOL voltage -560 -224 R0
WINDOW 123 0 0 Left 2
WINDOW 39 0 0 Left 2
SYMATTR InstName V1
SYMATTR Value 48
SYMBOL nmos 336 0 R0
SYMATTR InstName Q1
SYMATTR Value Si4490DY
SYMBOL nmos 544 -64 R0
SYMATTR InstName Q2
SYMATTR Value HAT2165H
SYMBOL nmos 784 -64 R0
SYMATTR InstName Q3
SYMATTR Value HAT2165H
SYMBOL res 272 304 R90
WINDOW 0 0 56 VBottom 2
WINDOW 3 32 56 VTop 2
SYMATTR InstName R15
SYMATTR Value 5K
SYMBOL PowerProducts\\LTC3900 880 400 R0
SYMATTR InstName U2
SYMBOL voltage 560 224 R0
WINDOW 123 0 0 Left 2
WINDOW 39 0 0 Left 2
SYMATTR InstName V3
SYMATTR Value 7
SYMBOL res 1232 -224 R0
SYMATTR InstName Rload
SYMATTR Value .165
SYMBOL voltage -256 -112 R0
WINDOW 123 0 0 Left 2
WINDOW 39 0 0 Left 2
SYMATTR InstName V2
SYMATTR Value 12
SYMBOL PowerProducts\\LT1952-1 -128 272 R0
SYMATTR InstName U3
SYMBOL cap -400 -208 R0
SYMATTR InstName C8
SYMATTR Value 10µ
TEXT 456 -224 Bottom 2 !K1 L1 L2 1
TEXT 992 616 Left 2 !.tran 2m startup
TEXT 456 480 Bottom 2 !K2 L4 L5 1
TEXT -208 632 Left 2 ;Note:\n  Opto coupler/driver not included on feedback to simplify simulation.\n  If the simulation model is not found please update with the "Sync Release" command from the "Tools" menu.\n  It remains the customer's responsibility to verify proper and reliable operation in the actual application.\n  Component substitution and printed circuit board layout may significantly affect circuit performance or reliability\n  Contact your local sales representative for assistance. This circuit is distributed to customers only for use with LTC parts\n  Copyright © 2013 Linear Technology Inc. All rights reserved.
TEXT 432 -256 Bottom 2 ;LT1952-1 - Single Switch Synchronous Forward Controller\nLTC3900 - Synchronous Rectifier Driver for Forward Converters\nSynchronous Forward Converter\nInput : 36V (39V Startup) to 75V       Output: 3.3V @ 20A
LINE Normal 455 622 455 -226 2
