Version 4
SHEET 1 1148 680
WIRE -64 48 -272 48
WIRE 16 48 -64 48
WIRE 32 48 16 48
WIRE 352 48 320 48
WIRE 464 48 352 48
WIRE 560 48 464 48
WIRE -272 64 -272 48
WIRE -64 64 -64 48
WIRE 352 64 352 48
WIRE 464 64 464 48
WIRE 560 64 560 48
WIRE -272 160 -272 144
WIRE -64 160 -64 128
WIRE 16 160 16 48
WIRE 32 160 16 160
WIRE 352 160 352 144
WIRE 352 160 320 160
WIRE 464 160 464 128
WIRE 560 160 560 144
WIRE 352 176 352 160
WIRE 176 240 176 224
WIRE 352 272 352 256
FLAG -272 160 0
FLAG 176 240 0
FLAG 560 48 OUT
FLAG -272 48 IN
FLAG 464 160 0
FLAG 352 272 0
FLAG -64 160 0
FLAG 560 160 0
SYMBOL voltage -272 48 R0
WINDOW 3 25 98 Left 0
WINDOW 123 0 0 Left 0
WINDOW 39 0 0 Left 0
SYMATTR Value PWL(0 0 1 10)
SYMATTR InstName V1
SYMBOL cap 448 64 R0
WINDOW 0 41 31 Left 0
SYMATTR InstName C1
SYMATTR Value 10µ
SYMBOL res 336 48 R0
SYMATTR InstName R1
SYMATTR Value 7.32K
SYMBOL res 336 160 R0
SYMATTR InstName R2
SYMATTR Value 4.12K
SYMBOL cap -80 64 R0
SYMATTR InstName C2
SYMATTR Value 10µ
SYMBOL PowerProducts\\LT1965 176 112 R0
SYMATTR InstName U1
SYMBOL res 544 48 R0
SYMATTR InstName Rload
SYMATTR Value 3
TEXT 464 248 Left 0 !.tran 1 startup
TEXT -360 288 Left 0 ;Note:\n  If the simulation model is not found please update with the "Sync Release" command from the "Tools" menu.\n  It remains the customer's responsibility to verify proper and reliable operation in the actual application.\n  Component substitution and printed circuit board layout may significantly affect circuit performance or reliability.\n  Contact your local sales representative for assistance. This circuit is distributed to customers only for use with LTC parts.\n  Copyright © 2011 Linear Technology Inc. All rights reserved.
TEXT 200 -16 Bottom 0 ;LT1965 - 1.1A, Low Noise, Low Dropout Linear Regulator\nInput: 10V     Output: 3.3V @ 1.1A
