Version 4
SHEET 1 1264 800
WIRE -224 112 -224 64
WIRE -224 224 -224 192
WIRE -96 64 -224 64
WIRE -96 112 -96 64
WIRE -96 224 -96 176
WIRE -96 416 -96 400
WIRE -96 496 -96 480
WIRE -48 400 -96 400
WIRE -16 64 -96 64
WIRE -16 160 -16 64
WIRE 16 160 -16 160
WIRE 80 64 -16 64
WIRE 80 96 80 64
WIRE 80 400 32 400
WIRE 80 400 80 368
WIRE 80 416 80 400
WIRE 80 496 80 480
WIRE 208 96 208 64
WIRE 208 400 208 368
WIRE 304 64 208 64
WIRE 304 80 304 64
WIRE 304 160 272 160
WIRE 304 160 304 144
WIRE 304 176 304 160
WIRE 304 256 304 240
WIRE 304 288 272 288
WIRE 304 304 304 288
WIRE 304 400 304 384
WIRE 400 64 304 64
WIRE 400 160 304 160
WIRE 512 64 464 64
WIRE 512 160 480 160
WIRE 512 160 512 64
WIRE 512 192 512 160
WIRE 512 288 304 288
WIRE 512 288 512 272
WIRE 608 160 512 160
WIRE 608 192 608 160
WIRE 608 288 512 288
WIRE 608 288 608 256
WIRE 704 160 608 160
WIRE 704 192 704 160
WIRE 704 288 704 256
WIRE 800 160 704 160
WIRE 800 192 800 160
WIRE 800 288 800 272
FLAG -96 224 0
FLAG -224 224 0
FLAG -96 496 0
FLAG 208 400 0
FLAG 304 256 0
FLAG 704 288 0
FLAG 304 400 0
FLAG 800 288 0
FLAG 80 496 0
FLAG 800 160 OUT
FLAG -224 64 IN
SYMBOL PowerProducts\\LT1936 144 224 R0
SYMATTR InstName U1
SYMBOL cap -112 112 R0
SYMATTR InstName C1
SYMATTR Value 2.2µ
SYMATTR SpiceLine Rser=0.015
SYMBOL cap 288 80 R0
SYMATTR InstName C2
SYMATTR Value 0.22µ
SYMBOL cap 688 192 R0
SYMATTR InstName C3
SYMATTR Value 47µ
SYMATTR SpiceLine Rser=0.015
SYMBOL cap 592 192 R0
SYMATTR InstName C4
SYMATTR Value 100p
SYMBOL res 288 288 R0
SYMATTR InstName R1
SYMATTR Value 10K
SYMBOL res 496 176 R0
SYMATTR InstName R2
SYMATTR Value 31.6K
SYMBOL voltage -224 96 R0
WINDOW 123 0 0 Left 0
WINDOW 39 24 132 Left 0
SYMATTR InstName V1
SYMATTR Value 12
SYMBOL res 48 384 R90
WINDOW 0 0 56 VBottom 0
WINDOW 3 32 56 VTop 0
SYMATTR InstName R3
SYMATTR Value 68.1K
SYMBOL cap -112 416 R0
SYMATTR InstName C5
SYMATTR Value 150p
SYMBOL cap 64 416 R0
SYMATTR InstName C6
SYMATTR Value 18p
SYMBOL schottky 464 48 R90
WINDOW 0 0 32 VBottom 0
WINDOW 3 32 32 VTop 0
SYMATTR InstName D1
SYMATTR Value CMDSH2-3
SYMATTR Description Diode
SYMATTR Type diode
SYMBOL schottky 288 240 M180
WINDOW 0 33 62 Left 0
WINDOW 3 24 0 Left 0
SYMATTR InstName D2
SYMATTR Value MBRS140
SYMATTR Description Diode
SYMATTR Type diode
SYMBOL ind 384 176 R270
WINDOW 0 32 56 VTop 0
WINDOW 3 5 56 VBottom 0
SYMATTR InstName L1
SYMATTR Value 10µ
SYMATTR SpiceLine Rser=41.2m
SYMBOL current 800 192 R0
WINDOW 123 0 0 Left 0
WINDOW 39 33 77 Left 0
WINDOW 0 29 -11 Left 0
WINDOW 3 53 32 Left 0
SYMATTR SpiceLine load
SYMATTR InstName I1
SYMATTR Value 1.2
TEXT 494 392 Left 0 !.tran .5m startup
TEXT -232 512 Left 0 ;Note:\n  If the simulation model is not found please update with the "Sync Release" command from the "Tools" menu.\n  It remains the customer's responsibility to verify proper and reliable operation in the actual application.\n  Component substitution and printed circuit board layout may significantly affect circuit performance or reliability\n  Contact your local sales representative for assistance. This circuit is distributed to customers only for use with LTC parts\n  Copyright © 2006 Linear Technology Inc. All rights reserved.
TEXT 240 -40 Center 0 ;LT1936 - 1.4A, 500KHz Step-Down Switching Regulator\nInput: 6.8V to 36V       Output: 5V @ 1.2A
