Version 4
SHEET 1 1048 1268
WIRE -64 656 -176 656
WIRE -64 688 -64 656
WIRE 32 688 32 656
WIRE 112 688 112 656
WIRE 288 688 288 672
WIRE -320 736 -432 736
WIRE -176 736 -176 656
WIRE -176 736 -320 736
WIRE -432 752 -432 736
WIRE -320 768 -320 736
WIRE 400 816 384 816
WIRE -432 848 -432 832
WIRE 464 864 384 864
WIRE -320 880 -320 848
WIRE -288 880 -320 880
WIRE -176 880 -208 880
WIRE 464 896 464 864
WIRE 464 896 384 896
WIRE 464 912 464 896
WIRE -432 928 -432 912
WIRE -320 928 -320 880
WIRE 240 960 240 944
WIRE -176 976 -176 880
WIRE -64 976 -64 944
WIRE -64 976 -176 976
WIRE 32 976 32 944
WIRE 112 976 112 944
WIRE 288 976 288 944
WIRE 464 1008 464 992
WIRE -432 1024 -432 1008
WIRE -320 1024 -320 1008
FLAG -320 1024 0
FLAG 32 656 0
FLAG 32 976 0
FLAG 288 976 0
FLAG 288 672 +V
FLAG 240 960 +V
FLAG 464 1008 0
FLAG 400 816 OUT
FLAG -432 1024 0
FLAG -432 912 +V
FLAG 112 656 0
FLAG -432 848 0
FLAG 112 976 0
SYMBOL Opamps\\LT1997-3 160 816 R0
SYMATTR InstName U1
SYMBOL VOLTAGE -320 912 R0
WINDOW 123 24 138 Left 2
WINDOW 39 24 117 Left 2
SYMATTR Value SINE(20 20 20k)
SYMATTR InstName V1
SYMBOL res -336 752 R0
SYMATTR InstName R1
SYMATTR Value 1
SYMBOL res -192 864 R90
WINDOW 0 0 56 VBottom 2
WINDOW 3 32 56 VTop 2
SYMATTR InstName R2
SYMATTR Value 1
SYMBOL VOLTAGE 464 896 R0
SYMATTR InstName V2
SYMATTR Value 2.5
SYMBOL VOLTAGE -432 912 R0
SYMATTR InstName V3
SYMATTR Value 5
SYMBOL current -432 752 R0
WINDOW 123 24 122 Left 2
WINDOW 39 24 101 Left 2
SYMATTR InstName I1
SYMATTR Value 1
TEXT 560 984 Left 2 !.tran 300u\n;ac oct 10 10 10meg
TEXT -504 1064 Left 2 ;Note:\n  If the simulation model is not found please update with the "Sync Release" command from the "Tools" menu.\n  It remains the customer's responsibility to verify proper and reliable operation in the actual application.\n  Component substitution and printed circuit board layout may significantly affect circuit performance or reliability\n  Contact your local sales representative for assistance. This circuit is distributed to customers only for use with LTC parts\n  Copyright © 2017 Linear Technology Inc. All rights reserved.
TEXT 112 624 Bottom 2 ;LT1997-3 - Precision, Wide Voltage Range Gain Selectable Amplifier\nSingle Supply Current Sense
