Version 4
SHEET 1 2876 1604
WIRE 1392 1136 1392 1056
WIRE 1392 1296 1392 1216
WIRE 1488 1056 1392 1056
WIRE 1488 1152 1488 1056
WIRE 1488 1296 1488 1216
WIRE 1584 1056 1488 1056
WIRE 1584 1072 1584 1056
WIRE 1584 1184 1584 1152
WIRE 1584 1216 1584 1184
WIRE 1584 1296 1584 1280
WIRE 1680 1056 1584 1056
WIRE 1680 1184 1584 1184
WIRE 1824 992 1824 928
WIRE 1824 1296 1824 1248
WIRE 2016 928 1824 928
WIRE 2016 960 2016 928
WIRE 2016 1056 1968 1056
WIRE 2016 1056 2016 1024
WIRE 2016 1072 2016 1056
WIRE 2016 1152 2016 1136
WIRE 2112 928 2016 928
WIRE 2112 1056 2016 1056
WIRE 2224 928 2176 928
WIRE 2224 1056 2192 1056
WIRE 2224 1056 2224 928
WIRE 2224 1088 2224 1056
WIRE 2224 1184 1968 1184
WIRE 2224 1184 2224 1168
WIRE 2224 1200 2224 1184
WIRE 2224 1296 2224 1280
WIRE 2352 1056 2224 1056
WIRE 2352 1136 2352 1056
WIRE 2352 1296 2352 1200
WIRE 2448 1056 2352 1056
WIRE 2448 1120 2448 1056
WIRE 2448 1296 2448 1200
FLAG 1824 1296 0
FLAG 2224 1296 0
FLAG 2016 1152 0
FLAG 2352 1296 0
FLAG 1392 1296 0
FLAG 2448 1296 0
FLAG 2448 1056 OUT
FLAG 1584 1296 0
FLAG 1488 1296 0
FLAG 1392 1056 IN
SYMBOL cap 2000 960 R0
SYMATTR InstName C2
SYMATTR Value .01µ
SYMBOL ind 2096 1072 R270
WINDOW 0 32 56 VTop 0
WINDOW 3 5 56 VBottom 0
SYMATTR InstName L1
SYMATTR Value 22µ
SYMATTR SpiceLine Rser=378m
SYMBOL RES 2208 1072 R0
SYMATTR InstName R1
SYMATTR Value 16.5K
SYMBOL res 2208 1184 R0
SYMATTR InstName R2
SYMATTR Value 10K
SYMBOL schottky 2000 1136 M180
WINDOW 0 39 57 Left 0
WINDOW 3 24 0 Left 0
SYMATTR InstName D1
SYMATTR Value MBRS140
SYMBOL schottky 2176 912 R90
WINDOW 0 0 32 VBottom 0
WINDOW 3 32 32 VTop 0
SYMATTR InstName D2
SYMATTR Value 1N4148
SYMBOL VOLTAGE 1392 1120 R0
WINDOW 123 0 0 Left 0
WINDOW 39 0 0 Left 0
SYMATTR InstName V1
SYMATTR Value 12
SYMBOL cap 2336 1136 R0
SYMATTR InstName C1
SYMATTR Value 22µ
SYMATTR SpiceLine Rser=15m
SYMBOL res 2432 1104 R0
SYMATTR InstName R3
SYMATTR Value 6.6
SYMBOL cap 1568 1216 R0
WINDOW 3 26 55 Left 0
SYMATTR Value .1µ
SYMATTR InstName C3
SYMBOL RES 1568 1056 R0
SYMATTR InstName R4
SYMATTR Value 15K
SYMBOL PowerProducts\\LT1933 1824 1120 R0
SYMATTR InstName U1
SYMBOL cap 1472 1152 R0
SYMATTR InstName C4
SYMATTR Value 2.2µ
SYMATTR SpiceLine Rser=10m
TEXT 1952 1296 Left 0 !.tran .5m startup
TEXT 1344 1336 Left 0 ;Note:\n  If the simulation model is not found please update with the "Sync Release" command from the "Tools" menu.\n  It remains the customer's responsibility to verify proper and reliable operation in the actual application.\n  Component substitution and printed circuit board layout may significantly affect circuit performance or reliability.\n  Contact your local sales representative for assistance. This circuit is distributed to customers only for use with LTC parts.\n  Copyright © 2006 Linear Technology Inc. All rights reserved.
TEXT 1896 904 Bottom 0 ;LT1933 -  600mA 500kHz Step-Down Switching Regulator\nInput: 12V     Output: 3.3V @ 500mA
