Version 4
SHEET 1 6428 1256
WIRE 1504 -16 1424 -16
WIRE 1584 -16 1504 -16
WIRE 1680 -16 1584 -16
WIRE 1504 0 1504 -16
WIRE 1584 0 1584 -16
WIRE 1680 0 1680 -16
WIRE 976 48 528 48
WIRE 1088 48 1056 48
WIRE 1424 48 1424 -16
WIRE 1424 48 1344 48
WIRE 528 64 528 48
WIRE 1504 80 1504 64
WIRE 1584 80 1584 64
WIRE 1680 96 1680 80
WIRE 1088 128 608 128
WIRE 1424 128 1344 128
WIRE 528 160 528 144
WIRE 608 160 608 128
WIRE 1088 208 1024 208
WIRE 1376 208 1344 208
WIRE 1024 224 1024 208
WIRE 1424 240 1424 224
WIRE 1712 240 1424 240
WIRE 1424 256 1424 240
WIRE 1712 256 1712 240
WIRE 608 272 608 240
WIRE 1216 272 1216 256
WIRE 1936 272 1760 272
WIRE 2048 272 2016 272
WIRE 1024 304 1024 288
WIRE 1424 352 1424 336
WIRE 1712 352 1712 336
FLAG 608 272 0
FLAG 1680 96 0
FLAG 528 160 0
FLAG 1024 304 0
FLAG 1216 272 0
FLAG 1424 352 0
FLAG 2048 272 0
FLAG 1712 352 0
FLAG 1584 80 0
FLAG 1504 80 0
FLAG 1760 320 0
SYMBOL voltage 608 144 R0
WINDOW 123 24 126 Left 2
WINDOW 39 24 111 Left 2
SYMATTR InstName Vpwm
SYMATTR Value PULSE(5 0 0.5 1u 1u .5m 1m)
SYMBOL LT1910 1216 128 R0
SYMATTR InstName U1
SYMBOL nmos 1376 128 R0
SYMATTR InstName Q1
SYMATTR Value IPD220N06L3
SYMBOL res 1408 32 R0
SYMATTR InstName R1
SYMATTR Value 10m
SYMBOL voltage 1680 -16 R0
WINDOW 123 0 0 Left 2
WINDOW 39 0 0 Left 2
SYMATTR InstName Vin
SYMATTR Value 48
SYMBOL voltage 528 48 R0
SYMATTR InstName V1
SYMATTR Value 5
SYMBOL res 1072 32 R90
WINDOW 0 0 56 VBottom 2
WINDOW 3 32 56 VTop 2
SYMATTR InstName R2
SYMATTR Value 10K
SYMBOL cap 1008 224 R0
SYMATTR InstName C1
SYMATTR Value .1µ
SYMBOL res 1408 240 R0
SYMATTR InstName R_LOAD
SYMATTR Value 2.43K
SYMBOL voltage 1920 272 R270
WINDOW 3 -32 56 VBottom 2
WINDOW 123 -62 56 VBottom 2
WINDOW 39 -47 56 VBottom 2
WINDOW 0 32 56 VTop 2
SYMATTR Value PULSE(0 1 1 20n 20n 0.2 0 1)
SYMATTR InstName Vshort
SYMBOL polcap 1568 0 R0
SYMATTR InstName C2
SYMATTR Value 10µ
SYMBOL cap 1488 0 R0
SYMATTR InstName C3
SYMATTR Value 2.2µ
SYMBOL sw 1712 352 R180
WINDOW 0 -23 109 Right 2
WINDOW 3 -25 3 Right 2
SYMATTR InstName S1
SYMATTR Value SHORT
TEXT 1408 400 Left 2 !.tran 1.5 startup
TEXT 1912 184 Center 2 ;Short Circuit Block
TEXT 664 416 Left 2 ;Notes:\n  If the simulation model is not found please update with the "Sync Release" command from the "Tools" menu.\n  It remains the customer's responsibility to verify proper and reliable operation in the actual application.\n  Component substitution and printed circuit board layout may significantly affect circuit performance or reliability.\n  Contact your local sales representative for assistance. This circuit is distributed to customers only for use with LTC parts.\n  Copyright © 2012, 2015 Linear Technology Inc. All rights reserved.
TEXT 1936 392 Center 2 !.model SHORT SW(Ron=1 Roff=10Meg Vt=.5 Vh=-.4)
TEXT 1208 -16 Bottom 2 ;LT1910 - Protected High Side MOSFET Driver (LT1161 is a Quad Version)\nFault Protected High Side Switch\n8V to 48V Supply
RECTANGLE Normal 2268 416 1608 156 2
