Version 4
SHEET 1 1148 680
WIRE -64 48 -272 48
WIRE 16 48 -64 48
WIRE 32 48 16 48
WIRE 352 48 320 48
WIRE 448 48 352 48
WIRE 544 48 448 48
WIRE -272 64 -272 48
WIRE -64 64 -64 48
WIRE 448 64 448 48
WIRE 544 64 544 48
WIRE 16 144 16 48
WIRE 32 144 16 144
WIRE 352 144 352 128
WIRE 352 144 320 144
WIRE -272 160 -272 144
WIRE -64 160 -64 128
WIRE 352 160 352 144
WIRE 448 160 448 128
WIRE 544 160 544 144
WIRE 176 240 176 208
WIRE 352 256 352 240
FLAG -272 160 0
FLAG 176 240 0
FLAG 544 48 OUT
FLAG -272 48 IN
FLAG 448 160 0
FLAG 352 256 0
FLAG -64 160 0
FLAG 544 160 0
SYMBOL voltage -272 48 R0
WINDOW 3 26 88 Left 0
WINDOW 123 0 0 Left 0
WINDOW 39 0 0 Left 0
SYMATTR Value PWL(0 0 1 10)
SYMATTR InstName V1
SYMBOL cap 432 64 R0
WINDOW 0 41 31 Left 0
SYMATTR InstName C2
SYMATTR Value 10µ
SYMBOL res 336 32 R0
SYMATTR InstName R1
SYMATTR Value 13K
SYMBOL res 336 144 R0
SYMATTR InstName R2
SYMATTR Value 4.12K
SYMBOL cap -80 64 R0
SYMATTR InstName C1
SYMATTR Value 1µ
SYMBOL PowerProducts\\LT1963 176 96 R0
WINDOW 0 1 -57 Center 0
WINDOW 3 -38 48 Left 0
SYMATTR InstName U2
SYMBOL res 528 48 R0
SYMATTR InstName Rload
SYMATTR Value 3.3
TEXT 432 256 Left 0 !.tran 1 startup
TEXT -368 288 Left 0 ;Note:\n  If the simulation model is not found please update with the "Sync Release" command from the "Tools" menu.\n  It remains the customer's responsibility to verify proper and reliable operation in the actual application.\n  Component substitution and printed circuit board layout may significantly affect circuit performance or reliability.\n  Contact your local sales representative for assistance. This circuit is distributed to customers only for use with LTC parts.\n  Copyright © 2011 Linear Technology Inc. All rights reserved.
TEXT 200 -80 Top 0 ;LT1963 - 1.5A, Low Noise, Fast Transient Response LDO Regulators\nInput: 10V     Output: 5V @ 1.5A
