Version 4
SHEET 1 1604 1036
WIRE 176 592 176 480
WIRE 176 784 176 672
WIRE 304 480 176 480
WIRE 304 608 304 480
WIRE 304 784 304 672
WIRE 384 480 304 480
WIRE 384 656 384 480
WIRE 432 656 384 656
WIRE 512 480 384 480
WIRE 512 560 512 480
WIRE 560 480 512 480
WIRE 592 784 592 752
WIRE 672 480 640 480
WIRE 672 560 672 480
WIRE 768 480 672 480
WIRE 912 480 832 480
WIRE 912 528 912 480
WIRE 912 656 752 656
WIRE 912 656 912 608
WIRE 912 672 912 656
WIRE 912 784 912 752
WIRE 1040 480 912 480
WIRE 1040 608 1040 480
WIRE 1040 784 1040 672
WIRE 1152 480 1040 480
WIRE 1152 592 1152 480
WIRE 1152 784 1152 672
FLAG 1152 480 OUT
FLAG 912 784 0
FLAG 1040 784 0
FLAG 1152 784 0
FLAG 592 784 0
FLAG 176 784 0
FLAG 304 784 0
FLAG 176 480 IN
SYMBOL VOLTAGE 176 576 R0
SYMATTR InstName V1
SYMATTR Value 3.3
SYMBOL RES 896 512 R0
SYMATTR InstName R1
SYMATTR Value 30.1K
SYMBOL RES 896 656 R0
SYMATTR InstName R2
SYMATTR Value 10K
SYMBOL ind 544 496 R270
WINDOW 0 32 56 VTop 0
WINDOW 3 5 56 VBottom 0
SYMATTR InstName L1
SYMATTR Value 2.2µ
SYMATTR SpiceLine Rser=0.182 Rpar=1K
SYMBOL LOAD2 1152 592 R0
SYMATTR InstName Iload
SYMATTR Value 450m
SYMATTR SpiceLine load
SYMBOL schottky 768 496 R270
WINDOW 0 32 32 VTop 0
WINDOW 3 0 32 VBottom 0
SYMATTR InstName D1
SYMATTR Value MBR0520L
SYMBOL cap 288 608 R0
SYMATTR InstName C1
SYMATTR Value 2.2µ
SYMBOL cap 1024 608 R0
SYMATTR InstName C2
SYMATTR Value 10µ
SYMBOL PowerProducts\\LT1930A 592 656 R0
SYMATTR InstName U1
TEXT 704 424 Bottom 0 ;LT1930A - 1A, 2.2MHz, Step-up DC/DC Converter in ThinSOT\nInput: 3.3V    Output: 5V @ 450mA
TEXT 686 808 Left 0 !.tran .2m startup
TEXT 104 824 Left 0 ;Note:\n  If the simulation model is not found please update with the "Sync Release" command from the "Tools" menu.\n  It remains the customer's responsibility to verify proper and reliable operation in the actual application.\n  Component substitution and printed circuit board layout may significantly affect circuit performance or reliability.\n  Contact your local sales representative for assistance. This circuit is distributed to customers only for use with LTC parts.\n  Copyright © 2006 Linear Technology Inc. All rights reserved.
