Version 4
SHEET 1 1164 680
WIRE 416 32 320 32
WIRE 480 32 416 32
WIRE 592 32 480 32
WIRE 688 32 592 32
WIRE -64 48 -272 48
WIRE 16 48 -64 48
WIRE 32 48 16 48
WIRE 480 48 480 32
WIRE 592 48 592 32
WIRE 688 48 688 32
WIRE -272 64 -272 48
WIRE -64 64 -64 48
WIRE 448 96 320 96
WIRE 16 144 16 48
WIRE 32 144 16 144
WIRE 448 144 448 96
WIRE 480 144 480 128
WIRE 480 144 448 144
WIRE -272 160 -272 144
WIRE -64 160 -64 128
WIRE 336 160 320 160
WIRE 416 160 416 32
WIRE 416 160 400 160
WIRE 480 160 480 144
WIRE 592 160 592 112
WIRE 688 160 688 128
WIRE 176 240 176 208
WIRE 480 272 480 240
FLAG -272 160 0
FLAG 176 240 0
FLAG 688 32 OUT
FLAG -272 48 IN
FLAG 592 160 0
FLAG 688 160 0
FLAG 480 272 0
FLAG -64 160 0
SYMBOL voltage -272 48 R0
WINDOW 3 31 83 Left 0
WINDOW 0 31 25 Left 0
WINDOW 123 0 0 Left 0
WINDOW 39 0 0 Left 0
SYMATTR Value PWL(0 0 1 20)
SYMATTR InstName V1
SYMBOL cap 576 48 R0
WINDOW 0 41 31 Left 0
SYMATTR InstName C3
SYMATTR Value 10µ
SYMBOL res 464 32 R0
SYMATTR InstName R1
SYMATTR Value 261K
SYMBOL res 464 144 R0
SYMATTR InstName R2
SYMATTR Value 249K
SYMBOL cap 336 176 R270
WINDOW 0 32 32 VTop 0
WINDOW 3 0 32 VBottom 0
SYMATTR InstName C2
SYMATTR Value 0.01µ
SYMBOL cap -80 64 R0
SYMATTR InstName C1
SYMATTR Value 1µ
SYMBOL PowerProducts\\LT1962 176 96 R0
WINDOW 0 3 -61 Center 0
WINDOW 3 -38 48 Left 0
SYMATTR InstName U1
SYMBOL res 672 32 R0
SYMATTR InstName Rload
SYMATTR Value 8.3
TEXT 568 264 Left 0 !.tran 1 startup
TEXT -296 280 Left 0 ;Note:\n  If the simulation model is not found please update with the "Sync Release" command from the "Tools" menu.\n  It remains the customer's responsibility to verify proper and reliable operation in the actual application.\n  Component substitution and printed circuit board layout may significantly affect circuit performance or reliability.\n  Contact your local sales representative for assistance. This circuit is distributed to customers only for use with LTC parts.\n  Copyright © 2011 Linear Technology Inc. All rights reserved.
TEXT 264 -24 Bottom 0 ;LT1962 - 300mA, Low Noise, LDO µPower Regulators\nInput: 10V     Output: 2.5V @ 300mA
