Version 4
SHEET 1 2812 2116
WIRE 1456 1360 1456 1296
WIRE 1456 1488 1456 1440
WIRE 1456 1680 1456 1664
WIRE 1456 1760 1456 1744
WIRE 1504 1664 1456 1664
WIRE 1552 1296 1456 1296
WIRE 1552 1360 1552 1296
WIRE 1552 1488 1552 1424
WIRE 1600 1664 1584 1664
WIRE 1600 1680 1600 1664
WIRE 1600 1760 1600 1744
WIRE 1648 1408 1648 1248
WIRE 1648 1504 1648 1488
WIRE 1680 1776 1680 1744
WIRE 1680 1856 1680 1840
WIRE 1712 1296 1552 1296
WIRE 1712 1424 1712 1296
WIRE 1728 1424 1712 1424
WIRE 1728 1504 1648 1504
WIRE 1728 1664 1600 1664
WIRE 1728 1744 1680 1744
WIRE 1824 1296 1712 1296
WIRE 1824 1360 1824 1296
WIRE 1888 1840 1888 1808
WIRE 1952 1360 1952 1296
WIRE 2080 1296 1952 1296
WIRE 2080 1328 2080 1296
WIRE 2080 1424 2048 1424
WIRE 2080 1424 2080 1392
WIRE 2096 1504 2048 1504
WIRE 2096 1520 2096 1504
WIRE 2096 1584 2048 1584
WIRE 2096 1664 2048 1664
WIRE 2096 1744 2048 1744
WIRE 2096 1744 2096 1664
WIRE 2144 1424 2080 1424
WIRE 2144 1424 2144 1376
WIRE 2192 1296 2080 1296
WIRE 2192 1376 2144 1376
WIRE 2192 1392 2192 1376
WIRE 2192 1472 2192 1456
WIRE 2240 1504 2096 1504
WIRE 2240 1600 2240 1584
WIRE 2240 1664 2096 1664
WIRE 2256 1376 2192 1376
WIRE 2352 1296 2256 1296
WIRE 2352 1376 2336 1376
WIRE 2352 1376 2352 1296
WIRE 2352 1504 2240 1504
WIRE 2352 1504 2352 1376
WIRE 2352 1536 2352 1504
WIRE 2352 1664 2240 1664
WIRE 2352 1664 2352 1616
WIRE 2352 1696 2352 1664
WIRE 2352 1792 2352 1776
WIRE 2400 1248 1648 1248
WIRE 2400 1376 2352 1376
WIRE 2400 1376 2400 1248
WIRE 2400 1392 2400 1376
WIRE 2400 1488 2400 1456
WIRE 2512 1376 2400 1376
WIRE 2512 1392 2512 1376
WIRE 2512 1488 2512 1472
FLAG 2192 1472 0
FLAG 2352 1792 0
FLAG 2400 1488 0
FLAG 2512 1488 0
FLAG 1888 1840 0
FLAG 1456 1488 0
FLAG 1552 1488 0
FLAG 1680 1856 0
FLAG 2512 1376 OUT
FLAG 1456 1296 IN
FLAG 1456 1760 0
FLAG 1600 1760 0
SYMBOL ind 2240 1392 R270
WINDOW 0 32 56 VTop 0
WINDOW 3 5 56 VBottom 0
SYMATTR InstName L1
SYMATTR Value 33µ
SYMATTR SpiceLine Rser=.12
SYMBOL cap 1440 1744 M180
WINDOW 0 24 64 Left 0
WINDOW 3 24 8 Left 0
SYMATTR InstName C1
SYMATTR Value 1500p
SYMBOL cap 2064 1392 M180
WINDOW 0 24 64 Left 0
WINDOW 3 24 8 Left 0
SYMATTR InstName C2
SYMATTR Value .1µ
SYMBOL schottky 2176 1456 M180
WINDOW 0 36 64 Left 0
WINDOW 3 24 0 Left 0
SYMATTR InstName D1
SYMATTR Value 30BQ060
SYMBOL polcap 2384 1392 R0
SYMATTR InstName C3
SYMATTR Value 100µ
SYMATTR SpiceLine Rser=100m
SYMBOL RES 2336 1520 R0
SYMATTR InstName R1
SYMATTR Value 165K
SYMBOL res 2336 1680 R0
SYMATTR InstName R2
SYMATTR Value 100K
SYMBOL diode 2256 1280 R90
WINDOW 0 0 32 VBottom 0
WINDOW 3 32 32 VTop 0
SYMATTR InstName D2
SYMATTR Value 1N4148
SYMBOL VOLTAGE 1456 1344 R0
WINDOW 123 0 0 Left 0
WINDOW 39 0 0 Left 0
SYMATTR InstName V1
SYMATTR Value 12
SYMBOL PowerProducts\\LT1976 1888 1584 R0
SYMATTR InstName U1
SYMBOL cap 2080 1520 R0
SYMATTR InstName C5
SYMATTR Value .1µ
SYMBOL res 1600 1648 R90
WINDOW 0 0 56 VBottom 0
WINDOW 3 32 56 VTop 0
SYMATTR InstName R4
SYMATTR Value 10K
SYMBOL cap 1664 1840 M180
WINDOW 0 24 64 Left 0
WINDOW 3 24 8 Left 0
SYMATTR InstName C8
SYMATTR Value .01µ
SYMBOL RES 1632 1504 M180
WINDOW 0 36 76 Left 0
WINDOW 3 36 40 Left 0
SYMATTR InstName R5
SYMATTR Value 100K
SYMBOL current 2512 1392 R0
WINDOW 123 0 0 Left 0
WINDOW 39 24 116 Left 0
SYMATTR SpiceLine load
SYMATTR InstName Iload
SYMATTR Value 1
SYMBOL res 2224 1488 R0
SYMATTR InstName R3
SYMATTR Value 24K
SYMBOL cap 2224 1600 R0
WINDOW 3 26 51 Left 0
SYMATTR Value 47p
SYMATTR InstName C6
SYMBOL cap 1584 1680 R0
SYMATTR InstName C7
SYMATTR Value 220p
SYMBOL cap 1536 1360 R0
SYMATTR InstName C4
SYMATTR Value 10µ
TEXT 2056 1856 Left 0 !.tran 18m startup
TEXT 1968 1240 Bottom 0 ;LT1976 - High Voltage 1.5A 200kHz Step-Down Switching Regulator with 100uA Quiescent Current\nInput: 12V       Output: 3.3V @ 1A
TEXT 1344 1864 Left 0 ;Note:\n  If the simulation model is not found please update with the "Sync Release" command from the "Tools" menu.\n  It remains the customer's responsibility to verify proper and reliable operation in the actual application.\n  Component substitution and printed circuit board layout may significantly affect circuit performance or reliability\n  Contact your local sales representative for assistance. This circuit is distributed to customers only for use with LTC parts\n  Copyright © 2006 Linear Technology Inc. All rights reserved.
