Version 4
SHEET 1 2724 1820
WIRE 1376 1248 1376 1184
WIRE 1376 1376 1376 1328
WIRE 1488 1184 1376 1184
WIRE 1488 1264 1488 1184
WIRE 1488 1376 1488 1328
WIRE 1568 1184 1488 1184
WIRE 1568 1488 1568 1184
WIRE 1616 1488 1568 1488
WIRE 1680 1184 1568 1184
WIRE 1680 1280 1680 1184
WIRE 1728 1184 1680 1184
WIRE 1760 1600 1760 1568
WIRE 1840 1184 1808 1184
WIRE 1840 1280 1840 1184
WIRE 1904 1184 1840 1184
WIRE 2048 1184 1968 1184
WIRE 2048 1200 2048 1184
WIRE 2048 1296 2048 1264
WIRE 2048 1392 2048 1360
WIRE 2048 1488 1904 1488
WIRE 2048 1488 2048 1456
WIRE 2048 1504 2048 1488
WIRE 2048 1600 2048 1584
WIRE 2240 1184 2048 1184
WIRE 2240 1216 2240 1184
WIRE 2240 1296 2240 1280
FLAG 1760 1600 0
FLAG 1376 1376 0
FLAG 2240 1296 0
FLAG 2048 1600 0
FLAG 2048 1184 OUT
FLAG 1488 1376 0
FLAG 1376 1184 IN
SYMBOL ind 1712 1200 R270
WINDOW 0 32 56 VTop 0
WINDOW 3 5 56 VBottom 0
SYMATTR InstName L1
SYMATTR Value 22µ
SYMATTR SpiceLine Rser=0.71
SYMBOL VOLTAGE 1376 1232 R0
WINDOW 123 0 0 Left 0
WINDOW 39 0 0 Left 0
SYMATTR InstName V1
SYMATTR Value 3.6
SYMBOL schottky 1904 1200 R270
WINDOW 0 32 32 VTop 0
WINDOW 3 0 32 VBottom 0
SYMATTR InstName D1
SYMATTR Value CMDSH2-3
SYMBOL cap 2224 1216 R0
SYMATTR InstName C1
SYMATTR Value .22µ
SYMATTR SpiceLine Rser=10m
SYMBOL PowerProducts\\LT1937 1760 1424 R0
SYMATTR InstName U1
SYMBOL res 2032 1488 R0
SYMATTR InstName R1
SYMATTR Value 6.34
SYMBOL LED 2032 1200 R0
WINDOW 0 24 5 Left 0
WINDOW 3 25 66 Left 0
SYMATTR InstName D2
SYMATTR Value NSPW500BS
SYMATTR Description Diode
SYMATTR Type diode
SYMBOL LED 2032 1296 R0
WINDOW 0 24 5 Left 0
WINDOW 3 25 66 Left 0
SYMATTR InstName D3
SYMATTR Value NSPW500BS
SYMATTR Description Diode
SYMATTR Type diode
SYMBOL LED 2032 1392 R0
WINDOW 0 24 5 Left 0
WINDOW 3 25 66 Left 0
SYMATTR InstName D4
SYMATTR Value NSPW500BS
SYMATTR Description Diode
SYMATTR Type diode
SYMBOL cap 1472 1264 R0
SYMATTR InstName C2
SYMATTR Value 1µ
SYMATTR SpiceLine Rser=10m
TEXT 2128 1600 Left 0 !.tran .2m startup
TEXT 1816 1128 Bottom 0 ;LT1937 -  1.2MHz White LED Step-Up Converter\nInput: 3.6V     Output: 15mA through three white LEDs
TEXT 1256 1632 Left 0 ;Note:\n  If the simulation model is not found please update with the "Sync Release" command from the "Tools" menu.\n  It remains the customer's responsibility to verify proper and reliable operation in the actual application.\n  Component substitution and printed circuit board layout may significantly affect circuit performance or reliability.\n  Contact your local sales representative for assistance. This circuit is distributed to customers only for use with LTC parts.\n  Copyright © 2006 Linear Technology Inc. All rights reserved.
