Version 4
SHEET 1 1696 984
WIRE 288 464 160 464
WIRE 512 464 288 464
WIRE 560 464 512 464
WIRE 672 464 640 464
WIRE 736 464 672 464
WIRE 864 464 800 464
WIRE 976 464 864 464
WIRE 1072 464 976 464
WIRE 1168 464 1072 464
WIRE 160 480 160 464
WIRE 288 480 288 464
WIRE 976 480 976 464
WIRE 1072 480 1072 464
WIRE 1168 480 1168 464
WIRE 864 496 864 464
WIRE 512 560 512 464
WIRE 672 560 672 464
WIRE 160 576 160 560
WIRE 288 576 288 544
WIRE 1072 576 1072 544
WIRE 1168 576 1168 560
WIRE 224 656 128 656
WIRE 352 656 304 656
WIRE 432 656 352 656
WIRE 864 656 864 576
WIRE 864 656 752 656
WIRE 976 656 976 544
WIRE 976 656 864 656
WIRE 128 672 128 656
WIRE 352 672 352 656
WIRE 864 672 864 656
WIRE 128 768 128 752
WIRE 352 768 352 736
WIRE 592 768 592 752
WIRE 864 768 864 752
FLAG 1168 464 OUT
FLAG 864 768 0
FLAG 1072 576 0
FLAG 1168 576 0
FLAG 592 768 0
FLAG 160 576 0
FLAG 288 576 0
FLAG 352 768 0
FLAG 128 768 0
FLAG 160 464 IN
SYMBOL VOLTAGE 160 464 R0
SYMATTR InstName V1
SYMATTR Value 3.3
SYMBOL RES 848 480 R0
SYMATTR InstName R1
SYMATTR Value 29.4K
SYMBOL RES 848 656 R0
SYMATTR InstName R2
SYMATTR Value 10K
SYMBOL IND 544 480 R270
WINDOW 0 32 56 VTop 2
WINDOW 3 5 56 VBottom 2
SYMATTR InstName L1
SYMATTR Value 1.8µ
SYMATTR SpiceLine Rser=0.182
SYMBOL SCHOTTKY 736 480 R270
WINDOW 0 32 32 VTop 2
WINDOW 3 0 32 VBottom 2
SYMATTR InstName D1
SYMATTR Value 1N5817
SYMBOL PowerProducts\\LT1935 592 656 R0
SYMATTR InstName U1
SYMBOL res 320 640 R90
WINDOW 0 0 56 VBottom 2
WINDOW 3 32 56 VTop 2
SYMATTR InstName R3
SYMATTR Value 10K
SYMBOL cap 336 672 R0
SYMATTR InstName C3
SYMATTR Value .22µ
SYMBOL VOLTAGE 128 656 R0
WINDOW 123 24 138 Left 2
WINDOW 39 24 117 Left 2
SYMATTR InstName V2
SYMATTR Value PWL(0 0 1m 3)
SYMBOL res 1152 464 R0
SYMATTR InstName Rload
SYMATTR Value 5
SYMBOL cap 272 480 R0
SYMATTR InstName C1
SYMATTR Value 4.7µ
SYMBOL cap 1056 480 R0
SYMATTR InstName C2
SYMATTR Value 20µ
SYMATTR SpiceLine Rser=.003
SYMBOL cap 960 480 R0
SYMATTR InstName C4
SYMATTR Value 150p
TEXT 936 768 Left 2 !.tran 2m
TEXT 680 408 Bottom 2 ;LT1935 - 1.2MHz Boost DC/DC Converter in ThinSOT with 2A Switch\n5V Boost Converter\nInput: 2.5V to 4.8V      Output: 5V @ 1A (Vin=3.3V) or 0.6A (Vin=2.5V)
TEXT 40 792 Left 2 ;Notes:\n  If the simulation model is not found please update with the "Sync Release" command from the "Tools" menu.\n  It remains the customer's responsibility to verify proper and reliable operation in the actual application.\n  Component substitution and printed circuit board layout may significantly affect circuit performance or reliability.\n  Contact your local sales representative for assistance. This circuit is distributed to customers only for use with LTC parts.\n  Copyright © 2013 Linear Technology Inc. All rights reserved.
