Version 4
SHEET 1 1644 996
WIRE 208 480 208 448
WIRE 208 592 208 560
WIRE 304 448 208 448
WIRE 304 496 304 448
WIRE 304 592 304 560
WIRE 384 448 304 448
WIRE 384 656 384 448
WIRE 432 656 384 656
WIRE 512 448 384 448
WIRE 512 560 512 448
WIRE 560 448 512 448
WIRE 592 768 592 752
WIRE 672 448 640 448
WIRE 672 560 672 448
WIRE 704 448 672 448
WIRE 784 448 768 448
WIRE 784 480 784 448
WIRE 784 576 784 544
WIRE 832 448 784 448
WIRE 976 448 912 448
WIRE 976 496 976 448
WIRE 976 656 752 656
WIRE 976 656 976 576
WIRE 976 672 976 656
WIRE 976 768 976 752
WIRE 1088 448 976 448
WIRE 1088 512 1088 448
WIRE 1088 656 976 656
WIRE 1088 656 1088 576
WIRE 1168 448 1088 448
WIRE 1168 608 1168 448
WIRE 1168 768 1168 672
WIRE 1280 448 1168 448
WIRE 1280 592 1280 448
WIRE 1280 768 1280 672
FLAG 304 592 0
FLAG 208 592 0
FLAG 592 768 0
FLAG 1280 768 0
FLAG 1168 768 0
FLAG 976 768 0
FLAG 784 576 0
FLAG 1280 448 OUT
FLAG 208 448 IN
SYMBOL schottky 768 480 R0
SYMATTR InstName D1
SYMATTR Value MBR0520L
SYMBOL RES 960 656 R0
SYMATTR InstName R2
SYMATTR Value 10.0K
SYMBOL RES 960 480 R0
SYMATTR InstName R1
SYMATTR Value 29.4K
SYMBOL VOLTAGE 208 464 R0
SYMATTR InstName V1
SYMATTR Value 5V
SYMBOL cap 1072 512 R0
SYMATTR InstName C3
SYMATTR Value 180p
SYMBOL LOAD2 1280 672 M180
WINDOW 0 25 84 Left 0
WINDOW 3 17 -16 Left 0
SYMATTR InstName Iload
SYMATTR Value 300mA
SYMATTR SpiceLine load
SYMBOL PowerProducts\\LT1931A 592 656 R0
SYMATTR InstName U1
SYMBOL cap 768 432 R90
WINDOW 0 0 32 VBottom 0
WINDOW 3 32 32 VTop 0
SYMATTR InstName C4
SYMATTR Value 1µ
SYMBOL cap 1184 672 R180
WINDOW 0 -21 59 Left 0
WINDOW 3 -39 6 Left 0
SYMATTR InstName C6
SYMATTR Value 4.7µ
SYMBOL cap 320 560 R180
WINDOW 0 -21 59 Left 0
WINDOW 3 -39 6 Left 0
SYMATTR InstName C5
SYMATTR Value 4.7µ
SYMBOL ind2 544 464 R270
WINDOW 0 32 56 VTop 0
WINDOW 3 5 56 VBottom 0
SYMATTR InstName L1
SYMATTR Value 4.7µ
SYMATTR Type ind
SYMBOL ind2 928 464 M270
WINDOW 0 32 56 VTop 0
WINDOW 3 5 56 VBottom 0
SYMATTR InstName L2
SYMATTR Value 4.7µ
SYMATTR Type ind
TEXT 760 776 Left 0 !.tran .4m startup
TEXT 184 792 Left 0 ;Note:\n  If the simulation model is not found please update with the "Sync Release" command from the "Tools" menu.\n  It remains the customer's responsibility to verify proper and reliable operation in the actual application.\n  Component substitution and printed circuit board layout may significantly affect circuit performance or reliability\n  Contact your local sales representative for assistance. This circuit is distributed to customers only for use with LTC parts\n  Copyright © 2006 Linear Technology Inc. All rights reserved.
TEXT 752 400 Bottom 0 ;LT1931A - 1A, 2.2MHz, Inverting DC/DC Converter\nInput: 5V       Output: -5V at 300mA
