Version 4
SHEET 1 1140 680
WIRE 368 -16 -48 -16
WIRE -128 48 -336 48
WIRE 32 48 -128 48
WIRE 368 48 368 -16
WIRE 368 48 320 48
WIRE 480 48 368 48
WIRE 576 48 480 48
WIRE -336 64 -336 48
WIRE -128 64 -128 48
WIRE -48 64 -48 -16
WIRE 368 64 368 48
WIRE 480 64 480 48
WIRE 576 64 576 48
WIRE -48 144 -48 128
WIRE 32 144 -48 144
WIRE 368 144 320 144
WIRE -336 160 -336 144
WIRE -128 160 -128 128
WIRE 368 160 368 144
WIRE 480 160 480 128
WIRE 576 160 576 144
WIRE 176 224 176 208
WIRE 368 256 368 240
FLAG -336 160 0
FLAG 176 224 0
FLAG -336 48 IN
FLAG -128 160 0
FLAG 576 48 OUT
FLAG 368 256 0
FLAG 480 160 0
FLAG 576 160 0
SYMBOL voltage -336 48 R0
WINDOW 3 24 93 Left 0
WINDOW 123 0 0 Left 0
WINDOW 39 0 0 Left 0
SYMATTR Value PWL(0 0 1 -10)
SYMATTR InstName V1
SYMBOL PowerProducts\\LT1964-BYP 176 96 R0
WINDOW 3 -65 49 Left 0
WINDOW 0 0 -52 Center 0
SYMATTR InstName U1
SYMBOL cap -64 64 R0
WINDOW 0 41 9 Left 0
WINDOW 3 27 51 Left 0
SYMATTR InstName C3
SYMATTR Value .01µ
SYMBOL cap -144 64 R0
WINDOW 0 38 9 Left 0
WINDOW 3 33 56 Left 0
SYMATTR InstName C1
SYMATTR Value 1µ
SYMBOL res 352 144 R0
SYMATTR InstName R1
SYMATTR Value 249K
SYMBOL cap 464 64 R0
WINDOW 0 41 35 Left 0
WINDOW 3 39 63 Left 0
SYMATTR InstName C2
SYMATTR Value 10µ
SYMBOL res 560 48 R0
SYMATTR InstName Rload
SYMATTR Value 25
SYMBOL res 352 48 R0
SYMATTR InstName R2
SYMATTR Value 768K
TEXT 472 232 Left 0 !.tran 1 startup
TEXT -408 272 Left 0 ;Note:\n  If the simulation model is not found please update with the "Sync Release" command from the "Tools" menu.\n  It remains the customer's responsibility to verify proper and reliable operation in the actual application.\n  Component substitution and printed circuit board layout may significantly affect circuit performance or reliability.\n  Contact your local sales representative for assistance. This circuit is distributed to customers only for use with LTC parts.\n  Copyright © 2011 Linear Technology Inc. All rights reserved.
TEXT 256 -24 Bottom 0 ;LT1964 - 200mA, Low Noise, Low Dropout Negative µPower Regulator\nInput: -10V     Output: -5V @ 200mA
