Version 4
SHEET 1 1280 852
WIRE 480 32 304 32
WIRE 480 48 480 32
WIRE -112 96 -208 96
WIRE -32 96 -112 96
WIRE 176 96 -32 96
WIRE -208 112 -208 96
WIRE -112 112 -112 96
WIRE 176 112 176 96
WIRE 304 112 304 32
WIRE 480 144 480 128
WIRE -32 176 -32 96
WIRE 96 176 -32 176
WIRE 560 176 384 176
WIRE 656 176 560 176
WIRE 656 192 656 176
WIRE -208 208 -208 192
WIRE -112 208 -112 176
WIRE -32 208 -32 176
WIRE 560 208 560 176
WIRE -32 304 -32 288
WIRE 96 304 -32 304
WIRE 464 304 384 304
WIRE 560 304 560 272
WIRE 656 304 656 272
WIRE 464 320 464 304
WIRE 176 384 176 368
WIRE 176 384 80 384
WIRE 80 400 80 384
WIRE 176 400 176 384
WIRE 304 400 304 368
WIRE 464 416 464 400
WIRE 80 496 80 464
WIRE 176 496 176 480
FLAG 464 416 0
FLAG -208 208 0
FLAG 656 304 0
FLAG 560 304 0
FLAG -112 208 0
FLAG 656 176 OUT
FLAG -208 96 IN
FLAG 176 496 0
FLAG 80 496 0
FLAG 304 400 0
FLAG 480 144 0
SYMBOL cap 544 208 R0
SYMATTR InstName C1
SYMATTR Value 4.7µ
SYMBOL cap -128 112 R0
SYMATTR InstName C2
SYMATTR Value 4.7µ
SYMBOL res 640 176 R0
SYMATTR InstName Rload
SYMATTR Value 2.083
SYMBOL voltage -208 96 R0
WINDOW 123 0 0 Left 2
WINDOW 39 0 0 Left 2
SYMATTR InstName V1
SYMATTR Value -5
SYMBOL res 448 304 R0
SYMATTR InstName R1
SYMATTR Value 2K
SYMBOL res -48 192 R0
SYMATTR InstName R2
SYMATTR Value 10K
SYMBOL res 160 384 R0
SYMATTR InstName R3
SYMATTR Value 24.9K
SYMBOL cap 64 400 R0
SYMATTR InstName C3
SYMATTR Value 100p
SYMBOL PowerProducts\\LT3090 240 240 R0
SYMATTR InstName U2
SYMBOL voltage 480 32 R0
WINDOW 123 0 0 Left 2
WINDOW 39 0 0 Left 2
SYMATTR InstName V2
SYMATTR Value 3
TEXT 456 464 Left 2 !.tran 100u startup
TEXT 232 0 Bottom 2 ;LT3090 - -36V, 600mA Negative Linear Regulator with Programmable Current Limit\nNegative Linear Regulator with Current Monitor\nInput: -5V       Output: -1.25V @ 600mA
TEXT -376 504 Left 2 ;Note:\n  If the simulation model is not found please update with the "Sync Release" command from the "Tools" menu.\n  It remains the customer's responsibility to verify proper and reliable operation in the actual application.\n  Component substitution and printed circuit board layout may significantly affect circuit performance or reliability.\n  Contact your local sales representative for assistance. This circuit is distributed to customers only for use with LTC parts.\n  Copyright © 2013 Linear Technology Inc. All rights reserved.
