Version 4
SHEET 1 1092 756
WIRE -80 -48 -224 -48
WIRE 176 -48 -80 -48
WIRE -224 -32 -224 -48
WIRE -80 -32 -80 -48
WIRE 176 -16 176 -48
WIRE -224 64 -224 48
WIRE -80 64 -80 32
WIRE 112 224 112 208
WIRE 256 240 256 208
WIRE 416 240 256 240
WIRE 512 240 416 240
WIRE 512 256 512 240
WIRE 416 272 416 240
WIRE 112 320 112 304
WIRE 416 368 416 336
WIRE 512 368 512 336
FLAG 112 320 0
FLAG -224 64 0
FLAG 512 368 0
FLAG 416 368 0
FLAG -80 64 0
FLAG 512 240 OUT
FLAG -224 -48 IN
SYMBOL res 96 208 R0
SYMATTR InstName R1
SYMATTR Value 100K
SYMBOL cap 400 272 R0
SYMATTR InstName C1
SYMATTR Value 2.2µ
SYMBOL cap -96 -32 R0
SYMATTR InstName C2
SYMATTR Value 1µ
SYMBOL res 496 240 R0
SYMATTR InstName Rload
SYMATTR Value 5
SYMBOL voltage -224 -48 R0
SYMATTR InstName V1
SYMATTR Value 12
SYMBOL PowerProducts\\LT3082 176 96 R0
SYMATTR InstName U1
TEXT 592 352 Left 0 !.tran 50u startup
TEXT 184 -64 Bottom 0 ;LT3082 - 200mA Single Resistor Low Dropout Linear Regulator\nInput: 12V       Output: 1.0V, 200mA
TEXT -368 400 Left 0 ;Note:\n  If the simulation model is not found please update with the "Sync Release" command from the "Tools" menu.\n  It remains the customer's responsibility to verify proper and reliable operation in the actual application.\n  Component substitution and printed circuit board layout may significantly affect circuit performance or reliability.\n  Contact your local sales representative for assistance. This circuit is distributed to customers only for use with LTC parts.\n  Copyright © 2010 Linear Technology Inc. All rights reserved.
