Version 4
SHEET 1 1816 820
WIRE 240 -64 64 -64
WIRE 240 -48 240 -64
WIRE 64 16 64 -64
WIRE 64 16 -176 16
WIRE 80 16 64 16
WIRE 432 16 400 16
WIRE 592 16 432 16
WIRE 656 16 592 16
WIRE 768 16 656 16
WIRE 848 16 768 16
WIRE 896 16 848 16
WIRE 1072 16 976 16
WIRE -176 32 -176 16
WIRE 592 32 592 16
WIRE 848 32 848 16
WIRE 1072 32 1072 16
WIRE 1024 48 992 48
WIRE 656 112 656 16
WIRE -176 128 -176 112
WIRE 432 128 432 96
WIRE 432 128 400 128
WIRE 592 128 592 96
WIRE 592 128 432 128
WIRE 848 128 848 96
WIRE 1072 128 1072 112
WIRE 432 144 432 128
WIRE 992 144 992 48
WIRE 80 240 0 240
WIRE 432 240 432 224
WIRE 432 240 400 240
WIRE 560 240 432 240
WIRE 656 240 656 192
WIRE 656 240 640 240
WIRE 992 256 992 224
WIRE 768 272 768 16
WIRE 0 352 0 240
WIRE 80 352 0 352
WIRE 656 352 656 240
WIRE 656 352 400 352
WIRE 0 368 0 352
WIRE 0 464 0 448
WIRE 768 464 768 352
WIRE 768 464 400 464
WIRE 240 560 240 528
FLAG 240 560 0
FLAG -176 128 0
FLAG 0 464 0
FLAG 848 128 0
FLAG 1072 128 0
FLAG 1072 16 OUT
FLAG -176 16 IN
FLAG 1024 96 0
FLAG 992 256 0
SYMBOL LT3086 240 240 R0
SYMATTR InstName U1
SYMBOL voltage -176 16 R0
WINDOW 123 24 138 Left 2
WINDOW 39 24 117 Left 2
SYMATTR Value 10
SYMATTR InstName V1
SYMBOL res -16 352 R0
SYMATTR InstName R1
SYMATTR Value 357
SYMBOL res 416 0 R0
SYMATTR InstName R2
SYMATTR Value 92K
SYMBOL res 640 96 R0
SYMATTR InstName R3
SYMATTR Value 82.5K
SYMBOL res 752 256 R0
SYMATTR InstName R4
SYMATTR Value 100K
SYMBOL cap 832 32 R0
SYMATTR InstName C1
SYMATTR Value 10µ
SYMATTR SpiceLine V=10 Irms=8.919 Rser=0.005 Lser=0 mfg="KEMET" pn="C1210C106K8PAC" type="X5R"
SYMBOL cap 576 32 R0
SYMATTR InstName C2
SYMATTR Value 10p
SYMBOL res 880 32 R270
WINDOW 0 32 56 VTop 2
WINDOW 3 0 56 VBottom 2
SYMATTR InstName Rwire
SYMATTR Value .24
SYMBOL res 416 128 R0
SYMATTR InstName R6
SYMATTR Value 46.4K
SYMBOL res 544 256 R270
WINDOW 0 32 56 VTop 2
WINDOW 3 0 56 VBottom 2
SYMATTR InstName R7
SYMATTR Value 46.4K
SYMBOL sw 1072 128 M180
WINDOW 0 33 99 Left 2
WINDOW 3 30 18 Left 2
SYMATTR InstName Sload
SYMBOL voltage 992 128 R0
SYMATTR InstName V2
SYMATTR Value PULSE(0 1 0 100u 100u .5m 1m)
TEXT 864 472 Left 2 !.tran 2m startup
TEXT 416 -88 Bottom 2 ;LT3086  - 40V, 2.1A Low Dropout Adjustable Linear Regulator with Monitoring and Cable Drop Compensation\n5V, 2.1A USB Supply with Cable Drop Compensation\nInput: 1.55V to 40V    Output: 5V @ 2.1A with 240 milliohms of Cable Resistance
TEXT -176 584 Left 2 ;Note:\n  If the simulation model is not found please update with the "Sync Release" command from the "Tools" menu.\n  It remains the customer's responsibility to verify proper and reliable operation in the actual application.\n  Component substitution and printed circuit board layout may significantly affect circuit performance or reliability.\n  Contact your local sales representative for assistance. This circuit is distributed to customers only for use with LTC parts.\n  Copyright © 2014 Linear Technology Inc. All rights reserved.
TEXT 488 528 Left 2 !.model SW SW(Ron=2.38 Roff=4.76 Vt=.5 Vh=-.4)
