Version 4
SHEET 1 1504 684
WIRE 176 0 80 0
WIRE 256 0 176 0
WIRE 336 0 256 0
WIRE 640 0 592 0
WIRE 736 0 640 0
WIRE 816 0 736 0
WIRE 80 16 80 0
WIRE 176 16 176 0
WIRE 640 16 640 0
WIRE 736 16 736 0
WIRE 816 16 816 0
WIRE 256 96 256 0
WIRE 336 96 256 96
WIRE 640 96 640 80
WIRE 640 96 592 96
WIRE 80 112 80 96
WIRE 176 112 176 80
WIRE 736 112 736 80
WIRE 816 112 816 96
WIRE 256 192 256 176
WIRE 336 192 256 192
WIRE 736 192 592 192
WIRE 816 192 736 192
WIRE 736 208 736 192
WIRE 816 208 816 192
WIRE 112 288 0 288
WIRE 336 288 112 288
WIRE 608 288 592 288
WIRE 688 288 672 288
WIRE 0 304 0 288
WIRE 112 304 112 288
WIRE 736 304 736 272
WIRE 816 304 816 288
WIRE 288 384 176 384
WIRE 336 384 288 384
WIRE 624 384 592 384
WIRE 0 400 0 384
WIRE 112 400 112 368
WIRE 176 400 176 384
WIRE 288 400 288 384
WIRE 176 496 176 480
WIRE 288 496 288 464
FLAG 624 384 0
FLAG 688 288 0
FLAG 816 304 0
FLAG 736 304 0
FLAG 80 112 0
FLAG 0 400 0
FLAG 112 400 0
FLAG 176 496 0
FLAG 288 496 0
FLAG 816 112 0
FLAG 736 112 0
FLAG 816 0 OUT
FLAG 80 0 IN
FLAG 176 112 0
SYMBOL cap 608 304 R270
WINDOW 0 32 32 VTop 2
WINDOW 3 0 32 VBottom 2
SYMATTR InstName C1
SYMATTR Value 10n
SYMBOL res 800 192 R0
SYMATTR InstName R1
SYMATTR Value 3K
SYMBOL cap 720 208 R0
SYMATTR InstName C2
SYMATTR Value .1µ
SYMBOL voltage 80 0 R0
SYMATTR InstName V1
SYMATTR Value 12
SYMBOL res 240 80 R0
SYMATTR InstName R2
SYMATTR Value 120K
SYMBOL res -16 288 R0
SYMATTR InstName R3
SYMATTR Value 1.15K
SYMBOL cap 96 304 R0
SYMATTR InstName C3
SYMATTR Value 10n
SYMBOL res 160 384 R0
SYMATTR InstName R4
SYMATTR Value 11.3K
SYMBOL cap 272 400 R0
SYMATTR InstName C4
SYMATTR Value .1µ
SYMBOL cap 720 16 R0
SYMATTR InstName C5
SYMATTR Value 2.2µ
SYMBOL res 800 0 R0
SYMATTR InstName Rload
SYMATTR Value 50
SYMBOL PowerProducts\\LT3050-5 464 192 R0
SYMATTR InstName U1
SYMBOL cap 624 16 R0
SYMATTR InstName C6
SYMATTR Value 10n
SYMBOL cap 160 16 R0
SYMATTR InstName C7
SYMATTR Value 1µ
TEXT 736 408 Left 2 !.tran .1 startup
TEXT 488 -40 Bottom 2 ;LT3050-5 - 100mA, Linear Regulator with Precision Current Limit and Diagnostic Outputs\nAutomotive Active Antenna Power Supply with Precision Current Limit and Diagnostics\nInput: 5.6V to 15V     Output: 5V @ 100mA, 10mA Min
TEXT -152 512 Left 2 ;Note:\n  If the simulation model is not found please update with the "Sync Release" command from the "Tools" menu.\n  It remains the customer's responsibility to verify proper and reliable operation in the actual application.\n  Component substitution and printed circuit board layout may significantly affect circuit performance or reliability.\n  Contact your local sales representative for assistance. This circuit is distributed to customers only for use with LTC parts.\n  Copyright © 2012 Linear Technology Inc. All rights reserved.
