Version 4
SHEET 1 3924 1516
WIRE 2704 1024 2608 1024
WIRE 2800 1024 2704 1024
WIRE 2832 1024 2800 1024
WIRE 3184 1024 3120 1024
WIRE 3312 1024 3184 1024
WIRE 3440 1024 3312 1024
WIRE 2608 1040 2608 1024
WIRE 3184 1040 3184 1024
WIRE 3312 1040 3312 1024
WIRE 3440 1040 3440 1024
WIRE 2704 1056 2704 1024
WIRE 2800 1120 2800 1024
WIRE 2832 1120 2800 1120
WIRE 3152 1120 3120 1120
WIRE 3152 1136 3152 1120
WIRE 3184 1136 3184 1120
WIRE 3184 1136 3152 1136
WIRE 3312 1136 3312 1104
WIRE 3440 1136 3440 1120
WIRE 2608 1152 2608 1120
WIRE 2704 1152 2704 1120
WIRE 3184 1152 3184 1136
WIRE 2976 1200 2976 1184
WIRE 3184 1248 3184 1232
FLAG 2608 1152 0
FLAG 2976 1200 0
FLAG 3184 1248 0
FLAG 3312 1136 0
FLAG 3440 1136 0
FLAG 3440 1024 OUT
FLAG 2704 1152 0
FLAG 2608 1024 IN
SYMBOL VOLTAGE 2608 1024 R0
WINDOW 123 0 0 Left 0
WINDOW 39 0 0 Left 0
SYMATTR InstName V1
SYMATTR Value 24
SYMBOL RES 3168 1024 R0
SYMATTR InstName R1
SYMATTR Value 392K
SYMBOL res 3168 1248 M180
WINDOW 0 36 76 Left 0
WINDOW 3 36 40 Left 0
SYMATTR InstName R2
SYMATTR Value 127K
SYMBOL cap 3296 1040 R0
SYMATTR InstName C2
SYMATTR Value .47µ
SYMATTR SpiceLine Rser=5m
SYMBOL cap 2688 1056 R0
SYMATTR InstName C4
SYMATTR Value 1µ
SYMATTR SpiceLine Rser=5m
SYMBOL res 3424 1024 R0
SYMATTR InstName Rload
SYMATTR Value 250
SYMBOL PowerProducts\\LT3012 2976 1056 R0
SYMATTR InstName U1
TEXT 3320 1184 Left 0 !.tran 10m startup
TEXT 2456 1264 Left 0 ;Note:\n  If the simulation model is not found please update with the "Sync Release" command from the "Tools" menu.\n  It remains the customer's responsibility to verify proper and reliable operation in the actual application.\n  Component substitution and printed circuit board layout may significantly affect circuit performance or reliability\n  Contact your local sales representative for assistance. This circuit is distributed to customers only for use with LTC parts\n  Copyright © 2007 Linear Technology Inc. All rights reserved.
TEXT 3024 968 Bottom 0 ;LT3014 - 20mA, 3V to 80V Low Dropout µPower Linear Regulator\nInput: 24V       Output: 5V @ 20mA
