Version 4
SHEET 1 1172 1564
WIRE 176 128 -16 128
WIRE 176 144 176 128
WIRE -16 256 -16 128
WIRE 48 256 -16 256
WIRE 336 256 304 256
WIRE 176 384 176 368
WIRE 176 384 16 384
WIRE -16 400 -16 256
WIRE 176 400 -16 400
WIRE 176 416 176 400
WIRE -96 528 -192 528
WIRE -16 528 -16 400
WIRE -16 528 -96 528
WIRE 48 528 -16 528
WIRE 336 528 336 256
WIRE 336 528 304 528
WIRE 400 528 336 528
WIRE 496 528 400 528
WIRE -192 544 -192 528
WIRE -96 544 -96 528
WIRE 400 544 400 528
WIRE 496 544 496 528
WIRE -192 640 -192 624
WIRE -96 640 -96 608
WIRE 400 640 400 608
WIRE 496 640 496 624
WIRE 16 656 16 384
WIRE 176 656 176 640
WIRE 176 656 16 656
WIRE -16 672 -16 528
WIRE 176 672 -16 672
WIRE 176 688 176 672
WIRE -16 800 -16 672
WIRE 48 800 -16 800
WIRE 336 800 336 528
WIRE 336 800 304 800
WIRE 16 928 16 656
WIRE 176 928 176 912
WIRE 176 928 16 928
WIRE 16 944 16 928
WIRE 176 944 176 928
WIRE 16 1040 16 1008
WIRE 176 1040 176 1024
FLAG -192 640 0
FLAG -96 640 0
FLAG -192 528 IN
FLAG 176 1040 0
FLAG 400 640 0
FLAG 496 528 OUT
FLAG 496 640 0
FLAG 16 1040 0
SYMBOL cap -112 544 R0
SYMATTR InstName C1
SYMATTR Value 2.2µ
SYMBOL voltage -192 528 R0
WINDOW 123 0 0 Left 0
WINDOW 39 0 0 Left 0
SYMATTR InstName V1
SYMATTR Value 12
SYMBOL res 160 928 R0
SYMATTR InstName R1
SYMATTR Value 100K
SYMBOL cap 384 544 R0
SYMATTR InstName C2
SYMATTR Value 22µ
SYMBOL PowerProducts\\LT3080-1 176 256 R0
SYMATTR InstName U1
SYMBOL PowerProducts\\LT3080-1 176 528 R0
SYMATTR InstName U2
SYMBOL PowerProducts\\LT3080-1 176 800 R0
SYMATTR InstName U3
SYMBOL cap 0 944 R0
SYMATTR InstName C3
SYMATTR Value 10n
SYMBOL res 480 528 R0
SYMATTR InstName Rload
SYMATTR Value 1
TEXT 176 120 Bottom 0 ;LT3080-1 - Parallelable 1.1A Adjustable Single Resistor Low Dropout Regulator\nInput: 12V       Output: 3V @ 3A
TEXT 408 984 Left 0 !.tran 15m startup
TEXT -432 1056 Left 0 ;Note:\n  If the simulation model is not found please update with the "Sync Release" command from the "Tools" menu.\n  It remains the customer's responsibility to verify proper and reliable operation in the actual application.\n  Component substitution and printed circuit board layout may significantly affect circuit performance or reliability.\n  Contact your local sales representative for assistance. This circuit is distributed to customers only for use with LTC parts.\n  Copyright © 2011 Linear Technology Inc. All rights reserved.
