Version 4
SHEET 1 1216 680
WIRE -128 160 -272 160
WIRE 0 160 -128 160
WIRE 16 160 0 160
WIRE 352 160 304 160
WIRE 464 160 352 160
WIRE 560 160 464 160
WIRE 464 176 464 160
WIRE 560 176 560 160
WIRE -272 192 -272 160
WIRE -128 192 -128 160
WIRE 0 256 0 160
WIRE 16 256 0 256
WIRE 352 256 352 240
WIRE 352 256 304 256
WIRE 352 272 352 256
WIRE 464 272 464 240
WIRE 560 272 560 256
WIRE -272 288 -272 272
WIRE -128 288 -128 256
WIRE 160 336 160 320
WIRE 352 368 352 352
FLAG 160 336 0
FLAG 352 368 0
FLAG 464 272 0
FLAG 560 272 0
FLAG -272 288 0
FLAG 560 160 OUT
FLAG -128 288 0
FLAG -272 160 IN
SYMBOL PowerProducts\\LT3020 160 192 R0
SYMATTR InstName U1
SYMBOL res 336 144 R0
SYMATTR InstName R1
SYMATTR Value 130K
SYMBOL res 336 256 R0
SYMATTR InstName R2
SYMATTR Value 20K
SYMBOL voltage -272 176 R0
WINDOW 123 0 0 Left 2
WINDOW 39 0 0 Left 2
SYMATTR InstName V1
SYMATTR Value 1.8
SYMBOL res 544 160 R0
SYMATTR InstName Rload
SYMATTR Value 15
SYMBOL cap 448 176 R0
SYMATTR InstName C1
SYMATTR Value 2.2µ
SYMBOL cap -144 192 R0
SYMATTR InstName C2
SYMATTR Value 2.2µ
TEXT 480 352 Left 2 !.tran 1m startup
TEXT 168 96 Bottom 2 ;LT3020 - 100mA, Low Voltage, Very Low Dropout Linear Regulator\nVLDO Regulator\nInput: 1.8V to 10V     Output: 1.5V @ 100mA
TEXT -440 384 Left 2 ;Note:\n  If the simulation model is not found please update with the "Sync Release" command from the "Tools" menu.\n  It remains the customer's responsibility to verify proper and reliable operation in the actual application.\n  Component substitution and printed circuit board layout may significantly affect circuit performance or reliability.\n  Contact your local sales representative for assistance. This circuit is distributed to customers only for use with LTC parts.\n  Copyright © 2016 Linear Technology Inc. All rights reserved.
