Version 4
SHEET 1 1536 876
WIRE -160 16 -176 16
WIRE -64 16 -160 16
WIRE 16 16 -64 16
WIRE 96 16 16 16
WIRE 160 16 96 16
WIRE 256 16 160 16
WIRE 560 16 512 16
WIRE 672 16 560 16
WIRE 880 16 672 16
WIRE 976 16 880 16
WIRE -176 32 -176 16
WIRE -64 32 -64 16
WIRE 672 32 672 16
WIRE 880 32 880 16
WIRE 976 32 976 16
WIRE 160 112 160 16
WIRE 256 112 160 112
WIRE 560 112 560 96
WIRE 560 112 512 112
WIRE 672 112 672 96
WIRE 672 112 560 112
WIRE 720 112 672 112
WIRE 816 112 800 112
WIRE -176 128 -176 112
WIRE -64 128 -64 96
WIRE 880 128 880 96
WIRE 976 128 976 112
WIRE 96 192 96 16
WIRE 160 208 160 192
WIRE 256 208 160 208
WIRE 528 208 512 208
WIRE 608 208 592 208
WIRE 16 304 16 16
WIRE 96 304 96 272
WIRE 256 304 96 304
WIRE 880 304 512 304
WIRE 960 304 880 304
WIRE 880 320 880 304
WIRE 960 320 960 304
WIRE 16 400 16 384
WIRE 256 400 16 400
WIRE 704 400 512 400
WIRE 800 400 704 400
WIRE 704 416 704 400
WIRE 800 416 800 400
WIRE 880 416 880 384
WIRE 960 416 960 400
WIRE 256 496 224 496
WIRE 544 496 512 496
WIRE 624 496 544 496
WIRE 544 512 544 496
WIRE 624 512 624 496
WIRE 704 512 704 480
WIRE 800 512 800 496
WIRE 384 576 384 560
WIRE 544 608 544 576
WIRE 624 608 624 592
FLAG 384 576 0
FLAG 608 208 0
FLAG 960 416 0
FLAG 880 416 0
FLAG -176 128 0
FLAG 624 608 0
FLAG 544 608 0
FLAG 816 112 0
FLAG 976 128 0
FLAG 880 128 0
FLAG 976 16 OUT
FLAG -160 16 IN
FLAG -64 128 0
FLAG 800 512 0
FLAG 704 512 0
SYMBOL cap 528 224 R270
WINDOW 0 32 32 VTop 2
WINDOW 3 0 32 VBottom 2
SYMATTR InstName C1
SYMATTR Value 10n
SYMBOL res 944 304 R0
SYMATTR InstName R1
SYMATTR Value 1K
SYMBOL cap 864 320 R0
SYMATTR InstName C2
SYMATTR Value .1µ
SYMBOL voltage -176 16 R0
WINDOW 123 24 138 Left 2
WINDOW 39 24 117 Left 2
SYMATTR InstName V1
SYMATTR Value 12
SYMBOL res 144 96 R0
SYMATTR InstName R2
SYMATTR Value 200K
SYMBOL res 784 400 R0
SYMATTR InstName R3
SYMATTR Value 604
SYMBOL cap 688 416 R0
SYMATTR InstName C3
SYMATTR Value 22n
SYMBOL res 608 496 R0
SYMATTR InstName R4
SYMATTR Value 120K
SYMBOL cap 528 512 R0
SYMATTR InstName C4
SYMATTR Value .1µ
SYMBOL res 544 0 R0
SYMATTR InstName R5
SYMATTR Value 442K
SYMBOL res 704 128 R270
WINDOW 0 32 56 VTop 2
WINDOW 3 0 56 VBottom 2
SYMATTR InstName R6
SYMATTR Value 60.4K
SYMBOL cap 864 32 R0
SYMATTR InstName C5
SYMATTR Value 10µ
SYMBOL res 960 16 R0
SYMATTR InstName Rload
SYMATTR Value 10.2
SYMBOL cap -80 32 R0
SYMATTR InstName C6
SYMATTR Value 10µ
SYMBOL PowerProducts\\LT3055 384 256 R0
SYMATTR InstName U1
SYMBOL res 80 176 R0
SYMATTR InstName R7
SYMATTR Value 200K
SYMBOL res 0 288 R0
SYMATTR InstName R8
SYMATTR Value 200K
SYMBOL cap 656 32 R0
SYMATTR InstName C7
SYMATTR Value 10n
TEXT 872 560 Left 2 !.tran .1 startup
TEXT 384 -56 Bottom 2 ;LT3055 - 500mA, Linear Regulator with Precision Current Limit and Diagnostic Outputs\n5V Supply with 497mA Precision Current Limit, 10mA Imin\nInput: 5.4V to 45V       Output: 5V @ 497mA (Imax = 497mA, Imin = 10mA)
TEXT -192 616 Left 2 ;Note:\n  If the simulation model is not found please update with the "Sync Release" command from the "Tools" menu.\n  It remains the customer's responsibility to verify proper and reliable operation in the actual application.\n  Component substitution and printed circuit board layout may significantly affect circuit performance or reliability.\n  Contact your local sales representative for assistance. This circuit is distributed to customers only for use with LTC parts.\n  Copyright © 2013 Linear Technology Inc. All rights reserved.
