Version 4
SHEET 1 1456 712
WIRE 304 0 304 -16
WIRE -80 80 -192 80
WIRE 0 80 -80 80
WIRE 176 80 0 80
WIRE -192 96 -192 80
WIRE -80 96 -80 80
WIRE 176 96 176 80
WIRE 304 96 304 80
WIRE 0 160 0 80
WIRE 96 160 0 160
WIRE 480 160 384 160
WIRE 576 160 480 160
WIRE 0 176 0 160
WIRE 480 176 480 160
WIRE 576 176 576 160
WIRE -192 192 -192 176
WIRE -80 192 -80 160
WIRE 480 272 480 240
WIRE 576 272 576 256
WIRE 0 288 0 256
WIRE 96 288 0 288
WIRE 416 288 384 288
WIRE 416 304 416 288
WIRE 176 368 176 352
WIRE 176 368 80 368
WIRE 304 368 304 352
WIRE 80 384 80 368
WIRE 176 384 176 368
WIRE 416 400 416 384
WIRE 80 480 80 448
WIRE 176 480 176 464
FLAG 80 480 0
FLAG 176 480 0
FLAG 304 368 0
FLAG -192 192 0
FLAG 304 -16 0
FLAG 480 272 0
FLAG 576 272 0
FLAG -192 80 IN
FLAG 576 160 OUT
FLAG 416 400 0
FLAG -80 192 0
SYMBOL res 160 368 R0
SYMATTR InstName R1
SYMATTR Value 49.9K
SYMBOL cap 64 384 R0
SYMATTR InstName C1
SYMATTR Value 0.1µ
SYMBOL voltage -192 80 R0
WINDOW 123 0 0 Left 2
WINDOW 39 0 0 Left 2
SYMATTR InstName V1
SYMATTR Value -3.3
SYMBOL res -16 160 R0
SYMATTR InstName R2
SYMATTR Value 12.4K
SYMBOL cap 464 176 R0
SYMATTR InstName C2
SYMATTR Value 10µ
SYMATTR SpiceLine Rser=10m
SYMBOL res 560 160 R0
SYMATTR InstName Rload
SYMATTR Value 1.67
SYMBOL LT3091 240 224 R0
SYMATTR InstName U1
SYMBOL voltage 304 96 M180
WINDOW 123 24 -26 Left 2
WINDOW 39 24 -5 Left 2
WINDOW 0 24 96 Left 2
WINDOW 3 24 16 Left 2
SYMATTR InstName V2
SYMATTR Value 3.3
SYMBOL res 400 288 R0
SYMATTR InstName R3
SYMATTR Value 1.58k
SYMBOL cap -96 96 R0
SYMATTR InstName C3
SYMATTR Value 10µ
TEXT 384 448 Left 2 !.tran .1 startup
TEXT 208 -48 Bottom 2 ;LT3091 - -36V, 1.5A Negative Linear Regulator with Programmable Current Limit\nInput: -1.5V to -36V       Output: -2.5V @ 1.5A (current limit 1.6A)
TEXT -360 504 Left 2 ;Note:\n  If the simulation model is not found please update with the "Sync Release" command from the "Tools" menu.\n  It remains the customer's responsibility to verify proper and reliable operation in the actual application.\n  Component substitution and printed circuit board layout may significantly affect circuit performance or reliability.\n  Contact your local sales representative for assistance. This circuit is distributed to customers only for use with LTC parts.\n  Copyright ©2016 Linear Technology Inc. All rights reserved.
