Version 4
SHEET 1 1424 680
WIRE 16 96 -80 96
WIRE 96 96 16 96
WIRE 112 96 96 96
WIRE 512 96 368 96
WIRE 624 96 512 96
WIRE 720 96 624 96
WIRE -80 112 -80 96
WIRE 16 112 16 96
WIRE 512 112 512 96
WIRE 624 112 624 96
WIRE 720 112 720 96
WIRE -80 208 -80 192
WIRE 16 208 16 176
WIRE 96 208 96 96
WIRE 112 208 96 208
WIRE 512 208 512 192
WIRE 512 208 368 208
WIRE 624 208 624 176
WIRE 720 208 720 192
WIRE 512 224 512 208
WIRE 112 320 96 320
WIRE 384 320 368 320
WIRE 464 320 448 320
WIRE 512 320 512 304
FLAG 96 320 0
FLAG -80 208 0
FLAG 464 320 0
FLAG 512 320 0
FLAG 624 208 0
FLAG 720 208 0
FLAG -80 96 IN
FLAG 720 96 OUT
FLAG 16 208 0
SYMBOL voltage -80 96 R0
SYMATTR InstName V1
SYMATTR Value 2.3
SYMBOL cap 384 336 R270
WINDOW 0 32 32 VTop 2
WINDOW 3 0 32 VBottom 2
SYMATTR InstName C1
SYMATTR Value .01µ
SYMBOL res 496 96 R0
SYMATTR InstName R1
SYMATTR Value 118K
SYMBOL res 496 208 R0
SYMATTR InstName R2
SYMATTR Value 59K
SYMBOL cap 608 112 R0
SYMATTR InstName C2
SYMATTR Value 10µ
SYMATTR SpiceLine Rser=10m
SYMBOL res 704 96 R0
SYMATTR InstName Rload
SYMATTR Value 18
SYMBOL LT3061 240 208 R0
SYMATTR InstName U1
SYMBOL cap 0 112 R0
SYMATTR InstName C3
SYMATTR Value 10µ
TEXT 592 320 Left 2 !.tran .1 startup
TEXT 304 40 Bottom 2 ;LT3061 - 45V Vin, µPower, Low Noise, 100mA LDO with Output Discharge\nLow Noise Linear  Regulator with Output Discharge\nInput: 2.1V to 45V     Output: 1.8V @ 100mA
TEXT -288 368 Left 2 ;Note:\n  If the simulation model is not found please update with the "Sync Release" command from the "Tools" menu.\n  It remains the customer's responsibility to verify proper and reliable operation in the actual application.\n  Component substitution and printed circuit board layout may significantly affect circuit performance or reliability.\n  Contact your local sales representative for assistance. This circuit is distributed to customers only for use with LTC parts.\n  Copyright © 2015 Linear Technology Inc. All rights reserved.
