Version 4
SHEET 1 1116 860
WIRE -64 80 -160 80
WIRE 16 80 -64 80
WIRE 176 80 16 80
WIRE -160 96 -160 80
WIRE -64 96 -64 80
WIRE 176 112 176 80
WIRE -160 192 -160 176
WIRE -64 192 -64 160
WIRE 16 224 16 80
WIRE 48 224 16 224
WIRE 352 224 304 224
WIRE 448 224 352 224
WIRE 352 240 352 224
WIRE 448 240 448 224
WIRE 352 336 352 304
WIRE 448 336 448 320
WIRE 176 352 176 336
WIRE 176 352 96 352
WIRE 176 368 176 352
WIRE 96 384 96 352
WIRE 96 464 96 448
WIRE 176 464 176 448
FLAG 96 464 0
FLAG -160 192 0
FLAG 448 336 0
FLAG 352 336 0
FLAG -64 192 0
FLAG 448 224 OUT
FLAG -160 80 IN
FLAG 176 464 0
SYMBOL PowerProducts\\LT3080 176 224 R0
SYMATTR InstName U1
SYMBOL res 160 352 R0
SYMATTR InstName R1
SYMATTR Value 300K
SYMBOL cap 336 240 R0
SYMATTR InstName C1
SYMATTR Value 2.2µ
SYMBOL cap -80 96 R0
SYMATTR InstName C2
SYMATTR Value 2.2µ
SYMBOL res 432 224 R0
SYMATTR InstName Rload
SYMATTR Value 2.73
SYMBOL voltage -160 80 R0
WINDOW 123 0 0 Left 0
WINDOW 39 0 0 Left 0
SYMATTR InstName V1
SYMATTR Value 12
SYMBOL cap 80 384 R0
SYMATTR InstName C3
SYMATTR Value 10n
TEXT 336 424 Left 0 !.tran 25m startup
TEXT 176 72 Bottom 0 ;LT3080 - Adjustable 1.1A Single Resistor Low Dropout Regulator\nInput: 12V       Output: 3V @ 1.1A
TEXT -408 480 Left 0 ;Note:\n  If the simulation model is not found please update with the "Sync Release" command from the "Tools" menu.\n  It remains the customer's responsibility to verify proper and reliable operation in the actual application.\n  Component substitution and printed circuit board layout may significantly affect circuit performance or reliability.\n  Contact your local sales representative for assistance. This circuit is distributed to customers only for use with LTC parts.\n  Copyright © 2011 Linear Technology Inc. All rights reserved.
