Version 4
SHEET 1 1256 680
WIRE -80 160 -192 160
WIRE 0 160 -80 160
WIRE 16 160 0 160
WIRE 368 160 304 160
WIRE 464 160 368 160
WIRE -192 176 -192 160
WIRE -80 176 -80 160
WIRE 368 176 368 160
WIRE 464 176 464 160
WIRE 0 256 0 160
WIRE 16 256 0 256
WIRE -192 272 -192 256
WIRE -80 272 -80 240
WIRE 368 272 368 240
WIRE 464 272 464 256
WIRE 160 336 160 320
FLAG 160 336 0
FLAG 368 272 0
FLAG 464 272 0
FLAG -192 272 0
FLAG 464 160 OUT
FLAG -80 272 0
FLAG -192 160 IN
SYMBOL voltage -192 160 R0
WINDOW 123 0 0 Left 2
WINDOW 39 0 0 Left 2
SYMATTR InstName V1
SYMATTR Value 1.5
SYMBOL res 448 160 R0
SYMATTR InstName Rload
SYMATTR Value 12
SYMBOL cap 352 176 R0
SYMATTR InstName C1
SYMATTR Value 2.2µ
SYMBOL cap -96 176 R0
SYMATTR InstName C2
SYMATTR Value 2.2µ
SYMBOL PowerProducts\\LT3020-1.2 160 192 R0
SYMATTR InstName U1
TEXT 464 320 Left 2 !.tran 1m startup
TEXT 152 96 Bottom 2 ;LT3020-1.2  - 100mA, Low Voltage, Very Low Dropout Linear Regulator\nVLDO Regulator\nInput: 1.5V to 10V     Output: 1.2V @ 100mA
TEXT -400 344 Left 2 ;Note:\n  If the simulation model is not found please update with the "Sync Release" command from the "Tools" menu.\n  It remains the customer's responsibility to verify proper and reliable operation in the actual application.\n  Component substitution and printed circuit board layout may significantly affect circuit performance or reliability.\n  Contact your local sales representative for assistance. This circuit is distributed to customers only for use with LTC parts.\n  Copyright © 2016 Linear Technology Inc. All rights reserved.
