Version 4
SHEET 1 1272 756
WIRE -144 80 -256 80
WIRE 176 80 -144 80
WIRE -256 96 -256 80
WIRE -144 96 -144 80
WIRE 176 112 176 80
WIRE -48 176 -64 176
WIRE 48 176 32 176
WIRE 368 176 304 176
WIRE 480 176 368 176
WIRE 576 176 480 176
WIRE -256 192 -256 176
WIRE -144 192 -144 160
WIRE 368 192 368 176
WIRE 480 192 480 176
WIRE 576 192 576 176
WIRE -48 272 -64 272
WIRE 48 272 32 272
WIRE 368 272 304 272
WIRE 480 288 480 256
WIRE 576 288 576 272
WIRE 176 352 176 336
WIRE 304 352 176 352
WIRE 176 384 176 352
WIRE 304 384 304 352
WIRE 176 480 176 464
WIRE 304 480 304 448
FLAG -64 272 0
FLAG -256 192 0
FLAG 576 288 0
FLAG 480 288 0
FLAG -144 192 0
FLAG 576 176 OUT
FLAG -256 80 IN
FLAG -64 176 0
FLAG 176 480 0
FLAG 304 480 0
SYMBOL cap 464 192 R0
SYMATTR InstName C1
SYMATTR Value 22µ
SYMBOL cap -160 96 R0
SYMATTR InstName C2
SYMATTR Value 10µ
SYMBOL res 560 176 R0
SYMATTR InstName Rload
SYMATTR Value 1
SYMBOL voltage -256 80 R0
WINDOW 123 0 0 Left 2
WINDOW 39 0 0 Left 2
SYMATTR InstName V1
SYMATTR Value 5
SYMBOL res 48 256 R90
WINDOW 0 0 56 VBottom 2
WINDOW 3 32 56 VTop 2
SYMATTR InstName R1
SYMATTR Value 499
SYMBOL PowerProducts\\LT3081 176 224 R0
SYMATTR InstName U1
SYMBOL res 48 160 R90
WINDOW 0 0 56 VBottom 2
WINDOW 3 32 56 VTop 2
SYMATTR InstName R2
SYMATTR Value 1K
SYMBOL res 160 368 R0
SYMATTR InstName R3
SYMATTR Value 30.1K
SYMBOL res 352 176 R0
SYMATTR InstName R4
SYMATTR Value 6.04K
SYMBOL cap 288 384 R0
SYMATTR InstName C3
SYMATTR Value 100p
TEXT 496 416 Left 2 !.tran 100u startup
TEXT 200 56 Bottom 2 ;LT3081 - 1.5A Single Resistor Rugged Linear Regulator with Monitors\nWide Safe Operating Area Supply\nInput: 2.7V to 40V       Output: 1.5V @ 1.5A (Current Limited)
TEXT -400 512 Left 2 ;Note:\n  If the simulation model is not found please update with the "Sync Release" command from the "Tools" menu.\n  It remains the customer's responsibility to verify proper and reliable operation in the actual application.\n  Component substitution and printed circuit board layout may significantly affect circuit performance or reliability.\n  Contact your local sales representative for assistance. This circuit is distributed to customers only for use with LTC parts.\n  Copyright ©2013 Linear Technology Inc. All rights reserved.
