Version 4
SHEET 1 1272 884
WIRE -192 -432 -272 -432
WIRE -144 -432 -192 -432
WIRE 176 -432 -144 -432
WIRE -272 -416 -272 -432
WIRE -144 -416 -144 -432
WIRE 176 -400 176 -432
WIRE -48 -336 -64 -336
WIRE 48 -336 32 -336
WIRE 352 -336 304 -336
WIRE 448 -336 432 -336
WIRE 496 -336 448 -336
WIRE 592 -336 496 -336
WIRE -272 -320 -272 -336
WIRE -144 -320 -144 -352
WIRE 496 -320 496 -336
WIRE 592 -320 592 -336
WIRE 48 -240 -112 -240
WIRE 320 -240 304 -240
WIRE 496 -224 496 -256
WIRE 592 -224 592 -240
WIRE 176 -160 176 -176
WIRE 336 -160 176 -160
WIRE -192 -128 -192 -432
WIRE 176 -128 -192 -128
WIRE 176 -96 176 -128
WIRE -48 -32 -64 -32
WIRE 48 -32 32 -32
WIRE 352 -32 304 -32
WIRE 448 -32 448 -336
WIRE 448 -32 432 -32
WIRE -112 64 -112 -240
WIRE 48 64 -112 64
WIRE 320 64 304 64
WIRE -208 144 -224 144
WIRE -112 144 -112 64
WIRE -112 144 -128 144
WIRE -96 144 -112 144
WIRE 176 144 176 128
WIRE 176 144 -16 144
WIRE 336 144 336 -160
WIRE 336 144 176 144
WIRE 352 144 336 144
WIRE 432 144 416 144
FLAG -224 144 0
FLAG -64 -32 0
FLAG 432 144 0
FLAG -272 -320 0
FLAG 592 -224 0
FLAG 496 -224 0
FLAG -144 -320 0
FLAG 592 -336 OUT
FLAG -272 -432 IN
FLAG -64 -336 0
SYMBOL res -112 128 R90
WINDOW 0 0 56 VBottom 2
WINDOW 3 32 56 VTop 2
SYMATTR InstName R1
SYMATTR Value 25
SYMBOL PowerProducts\\LT3081 176 16 R0
SYMATTR InstName U1
SYMBOL res 48 -48 R90
WINDOW 0 0 56 VBottom 2
WINDOW 3 32 56 VTop 2
SYMATTR InstName R2
SYMATTR Value 1K
SYMBOL res 0 128 R90
WINDOW 0 0 56 VBottom 2
WINDOW 3 32 56 VTop 2
SYMATTR InstName R3
SYMATTR Value 15K
SYMBOL cap 352 160 R270
WINDOW 0 32 32 VTop 2
WINDOW 3 0 32 VBottom 2
SYMATTR InstName C3
SYMATTR Value 100p
SYMBOL cap 480 -320 R0
WINDOW 3 35 32 Left 2
WINDOW 123 22 58 Left 2
SYMATTR Value 22µ
SYMATTR Value2 x2
SYMATTR InstName C4
SYMBOL cap -160 -416 R0
WINDOW 3 35 34 Left 2
WINDOW 123 25 60 Left 2
SYMATTR Value 10µ
SYMATTR Value2 x2
SYMATTR InstName C5
SYMBOL res 576 -336 R0
SYMATTR InstName Rload
SYMATTR Value .5
SYMBOL voltage -272 -432 R0
WINDOW 123 0 0 Left 2
WINDOW 39 0 0 Left 2
SYMATTR InstName V2
SYMATTR Value 5
SYMBOL PowerProducts\\LT3081 176 -288 R0
SYMATTR InstName U2
SYMBOL res 48 -352 R90
WINDOW 0 0 56 VBottom 2
WINDOW 3 32 56 VTop 2
SYMATTR InstName R6
SYMATTR Value 1K
SYMBOL res 336 -320 R270
WINDOW 0 32 56 VTop 2
WINDOW 3 0 56 VBottom 2
SYMATTR InstName R5
SYMATTR Value 10m
SYMBOL res 336 -16 R270
WINDOW 0 32 56 VTop 2
WINDOW 3 0 56 VBottom 2
SYMATTR InstName R7
SYMATTR Value 10m
TEXT 480 144 Left 2 !.tran 1m startup
TEXT 240 -456 Bottom 2 ;LT3081 - 1.5A Single Resistor Rugged Linear Regulator with Monitors\nWide Safe Operating Area Supply Using Paralleling Regulators\nInput: 2.7V to 40V       Output: 1.5V @ 3A (Current Limited)
TEXT -408 192 Left 2 ;Note:\n  If the simulation model is not found please update with the "Sync Release" command from the "Tools" menu.\n  It remains the customer's responsibility to verify proper and reliable operation in the actual application.\n  Component substitution and printed circuit board layout may significantly affect circuit performance or reliability.\n  Contact your local sales representative for assistance. This circuit is distributed to customers only for use with LTC parts.\n  Copyright ©2014 Linear Technology Inc. All rights reserved.
TEXT -224 24 Top 1 ;Imon and R1 Cancel\n10m Ohm Ballast\nResistor Drop\n(R5 & R7)
