Version 4
SHEET 1 1516 692
WIRE -144 -16 -240 -16
WIRE 64 -16 -144 -16
WIRE -240 0 -240 -16
WIRE -144 0 -144 -16
WIRE 64 0 64 -16
WIRE -240 96 -240 80
WIRE -144 96 -144 64
WIRE 0 240 0 224
WIRE 144 240 144 224
WIRE 240 240 144 240
WIRE 144 256 144 240
WIRE 240 256 240 240
WIRE 0 352 0 320
WIRE 144 352 144 320
WIRE 240 352 240 336
FLAG -240 96 0
FLAG 0 352 0
FLAG 144 352 0
FLAG 240 352 0
FLAG -240 -16 IN
FLAG 240 240 OUT
FLAG -144 96 0
SYMBOL LT3088 64 112 R0
SYMATTR InstName U1
SYMBOL voltage -240 -16 R0
WINDOW 123 0 0 Left 2
WINDOW 39 0 0 Left 2
SYMATTR InstName V1
SYMATTR Value 5
SYMBOL res -16 224 R0
SYMATTR InstName R1
SYMATTR Value 30.1K
SYMBOL cap 128 256 R0
SYMATTR InstName C1
SYMATTR Value 10µ
SYMATTR SpiceLine Rser=5m
SYMBOL res 224 240 R0
SYMATTR InstName Rload
SYMATTR Value 1.875
SYMBOL cap -160 0 R0
SYMATTR InstName C2
SYMATTR Value 10µ
TEXT 352 344 Left 2 !.tran 1m startup
TEXT 88 -56 Bottom 2 ;LT3088 - 800mA Single Resistor Rugged Linear Regulator\nWide Safe Operating Area Linear Regulator\nInput: 1.2V to 36V       Output: 1.5V @ 800mA\n(Current limited internally by Vin-Vout differential, refer to datasheet)
TEXT -504 368 Left 2 ;Note:\n  If the simulation model is not found please update with the "Sync Release" command from the "Tools" menu.\n  It remains the customer's responsibility to verify proper and reliable operation in the actual application.\n  Component substitution and printed circuit board layout may significantly affect circuit performance or reliability.\n  Contact your local sales representative for assistance. This circuit is distributed to customers only for use with LTC parts.\n  Copyright ©2015 Linear Technology Inc. All rights reserved.
