Version 4
SHEET 1 4072 1516
WIRE 2592 1024 2496 1024
WIRE 2672 1024 2592 1024
WIRE 2784 1024 2672 1024
WIRE 3200 1024 3072 1024
WIRE 3312 1024 3200 1024
WIRE 3392 1024 3312 1024
WIRE 2496 1040 2496 1024
WIRE 3200 1040 3200 1024
WIRE 3392 1040 3392 1024
WIRE 2592 1056 2592 1024
WIRE 3312 1056 3312 1024
WIRE 2672 1072 2672 1024
WIRE 3136 1104 3072 1104
WIRE 3136 1136 3136 1104
WIRE 3200 1136 3200 1120
WIRE 3200 1136 3136 1136
WIRE 2496 1152 2496 1120
WIRE 2592 1152 2592 1120
WIRE 3200 1152 3200 1136
WIRE 3312 1152 3312 1120
WIRE 3392 1152 3392 1120
WIRE 2672 1184 2672 1152
WIRE 2784 1184 2672 1184
WIRE 3104 1184 3072 1184
WIRE 3104 1200 3104 1184
WIRE 2928 1248 2928 1232
WIRE 3200 1248 3200 1232
WIRE 3104 1280 3104 1264
FLAG 2496 1152 0
FLAG 2928 1248 0
FLAG 3200 1248 0
FLAG 3312 1152 0
FLAG 3392 1152 0
FLAG 3392 1024 OUT
FLAG 2592 1152 0
FLAG 2496 1024 IN
FLAG 3104 1280 0
SYMBOL VOLTAGE 2496 1024 R0
WINDOW 123 0 0 Left 2
WINDOW 39 0 0 Left 2
SYMATTR InstName V1
SYMATTR Value 24
SYMBOL RES 3184 1024 R0
SYMATTR InstName R1
SYMATTR Value 750K
SYMBOL res 3184 1248 M180
WINDOW 0 36 76 Left 2
WINDOW 3 36 40 Left 2
SYMATTR InstName R2
SYMATTR Value 249K
SYMBOL cap 3296 1056 R0
SYMATTR InstName C2
SYMATTR Value 3.3µ
SYMATTR SpiceLine Rser=5m
SYMBOL cap 2576 1056 R0
SYMATTR InstName C4
SYMATTR Value 1µ
SYMATTR SpiceLine Rser=5m
SYMBOL res 3376 1024 R0
SYMATTR InstName Rload
SYMATTR Value 20
SYMBOL res 2656 1056 R0
SYMATTR InstName R4
SYMATTR Value 1.6Meg
SYMBOL cap 3088 1200 R0
SYMATTR InstName C1
SYMATTR Value 1000p
SYMBOL PowerProducts\\LT3013B 2928 1104 R0
SYMATTR InstName U2
TEXT 3304 1248 Left 2 !.tran 10m startup
TEXT 2424 1304 Left 2 ;Note:\n  If the simulation model is not found please update with the "Sync Release" command from the "Tools" menu.\n  It remains the customer's responsibility to verify proper and reliable operation in the actual application.\n  Component substitution and printed circuit board layout may significantly affect circuit performance or reliability\n  Contact your local sales representative for assistance. This circuit is distributed to customers only for use with LTC parts\n  Copyright © 2007, 2014 Linear Technology Inc. All rights reserved.
TEXT 3008 952 Bottom 2 ;LT3013B - 250mA, 4V to 80V Low Dropout µPower Linear Regulator\n5V Low Dropout µPower Supply\nInput: 5.4V to 80V       Output: 5V @ 250mA
