Version 4
SHEET 1 1504 680
WIRE 416 48 256 48
WIRE 464 48 416 48
WIRE 256 64 256 48
WIRE 464 64 464 48
WIRE 112 128 80 128
WIRE 416 128 416 48
WIRE 416 128 400 128
WIRE 464 144 464 128
WIRE 0 224 -96 224
WIRE 80 224 80 208
WIRE 80 224 0 224
WIRE 112 224 80 224
WIRE 448 224 400 224
WIRE 528 224 448 224
WIRE 608 224 528 224
WIRE -96 240 -96 224
WIRE 0 240 0 224
WIRE 448 240 448 224
WIRE 528 240 528 224
WIRE 608 240 608 224
WIRE 80 320 80 224
WIRE 112 320 80 320
WIRE 448 320 448 304
WIRE 448 320 400 320
WIRE -96 336 -96 320
WIRE 0 336 0 304
WIRE 528 336 528 304
WIRE 608 336 608 320
WIRE 256 400 256 384
FLAG 256 400 0
FLAG -96 336 0
FLAG 464 144 0
FLAG 528 336 0
FLAG 608 336 0
FLAG -96 224 IN
FLAG 608 224 OUT
FLAG 0 336 0
SYMBOL voltage -96 224 R0
WINDOW 123 0 0 Left 2
WINDOW 39 0 0 Left 2
SYMATTR InstName V1
SYMATTR Value 3.8
SYMBOL ind 96 224 R180
WINDOW 0 36 80 Left 2
WINDOW 3 36 40 Left 2
SYMATTR InstName L1
SYMATTR Value 10µ
SYMATTR SpiceLine Rser=.2
SYMBOL cap 448 64 R0
SYMATTR InstName C1
SYMATTR Value 4.7µ
SYMBOL cap 432 240 R0
SYMATTR InstName C2
SYMATTR Value 0.1n
SYMBOL cap 512 240 R0
SYMATTR InstName C3
SYMATTR Value 1µ
SYMATTR SpiceLine Rser=10m
SYMBOL res 592 224 R0
SYMATTR InstName Rload
SYMATTR Value 625
SYMBOL LT3048-15 256 224 R0
SYMATTR InstName U2
SYMBOL cap -16 240 R0
SYMATTR InstName C4
SYMATTR Value 1µ
TEXT 432 384 Left 2 !.tran 2m startup
TEXT 256 32 Bottom 2 ;LT3048 - Low Noise Bias Generator\nLow Noise Bias Voltage Generator from Single Cell Li-Ion Battery\nInput: 2.7V to 4.8V       Output: 15V @ 24mA
TEXT -312 424 Left 2 ;Notes:\n  C2 reduced to speed up simulation, please see datasheet for typical value.\n  If the simulation model is not found please update with the "Sync Release" command from the "Tools" menu.\n  It remains the customer's responsibility to verify proper and reliable operation in the actual application.\n  Component substitution and printed circuit board layout may significantly affect circuit performance or reliability.\n  Contact your local sales representative for assistance. This circuit is distributed to customers only for use with LTC parts.\n  Copyright © 2014 Linear Technology Inc. All rights reserved.
