Version 4
SHEET 1 1536 732
WIRE 160 0 64 0
WIRE 240 0 160 0
WIRE 336 0 240 0
WIRE 640 0 592 0
WIRE 880 0 640 0
WIRE 976 0 880 0
WIRE 64 16 64 0
WIRE 160 16 160 0
WIRE 880 16 880 0
WIRE 976 16 976 0
WIRE 240 96 240 0
WIRE 336 96 240 96
WIRE 640 96 640 80
WIRE 640 96 592 96
WIRE 704 96 640 96
WIRE 800 96 784 96
WIRE 64 112 64 96
WIRE 160 112 160 80
WIRE 880 112 880 80
WIRE 976 112 976 96
WIRE 240 192 240 176
WIRE 336 192 240 192
WIRE 752 192 592 192
WIRE 848 192 752 192
WIRE 752 208 752 192
WIRE 848 208 848 192
WIRE 80 288 -32 288
WIRE 336 288 80 288
WIRE 608 288 592 288
WIRE 688 288 672 288
WIRE -32 304 -32 288
WIRE 752 304 752 288
WIRE 848 304 848 272
WIRE 80 320 80 288
WIRE 288 384 176 384
WIRE 336 384 288 384
WIRE 624 384 592 384
WIRE 176 400 176 384
WIRE 288 400 288 384
WIRE -32 416 -32 384
WIRE 80 416 80 384
WIRE 176 496 176 480
WIRE 288 496 288 464
FLAG 624 384 0
FLAG 688 288 0
FLAG 752 304 0
FLAG 848 304 0
FLAG 64 112 0
FLAG -32 416 0
FLAG 80 416 0
FLAG 176 496 0
FLAG 288 496 0
FLAG 800 96 0
FLAG 976 112 0
FLAG 880 112 0
FLAG 976 0 OUT
FLAG 64 0 IN
FLAG 160 112 0
SYMBOL PowerProducts\\LT3050 464 192 R0
SYMATTR InstName U1
SYMBOL cap 608 304 R270
WINDOW 0 32 32 VTop 2
WINDOW 3 0 32 VBottom 2
SYMATTR InstName C1
SYMATTR Value 10n
SYMBOL res 736 192 R0
SYMATTR InstName R1
SYMATTR Value 3.01K
SYMBOL cap 832 208 R0
SYMATTR InstName C2
SYMATTR Value .1µ
SYMBOL voltage 64 0 R0
WINDOW 0 36 36 Left 2
SYMATTR InstName V1
SYMATTR Value 12
SYMBOL res 224 80 R0
SYMATTR InstName R2
SYMATTR Value 453K
SYMBOL res -48 288 R0
SYMATTR InstName R3
SYMATTR Value 1.15K
SYMBOL cap 64 320 R0
SYMATTR InstName C3
SYMATTR Value 0.01µ
SYMBOL res 160 384 R0
SYMATTR InstName R4
SYMATTR Value 11.3K
SYMBOL cap 272 400 R0
SYMATTR InstName C4
SYMATTR Value 0.1µ
SYMBOL res 624 -16 R0
SYMATTR InstName R5
SYMATTR Value 442K
SYMBOL res 688 112 R270
WINDOW 0 32 56 VTop 2
WINDOW 3 0 56 VBottom 2
SYMATTR InstName R6
SYMATTR Value 60.4K
SYMBOL cap 864 16 R0
SYMATTR InstName C5
SYMATTR Value 2.2µ
SYMBOL res 960 0 R0
SYMATTR InstName Rload
SYMATTR Value 50
SYMBOL cap 144 16 R0
SYMATTR InstName C6
SYMATTR Value 1µ
TEXT 736 384 Left 2 !.tran .1 startup
TEXT 472 -48 Bottom 2 ;LT3050 - 100mA, Linear Regulator with Precision Current Limit and Diagnostic Outputs\nLow Noise Linear Regulator with Diagnostic Functions\nInput: 5.4V to 45V       Output: 5V @ 100mA
TEXT -128 512 Left 2 ;Note:\n  If the simulation model is not found please update with the "Sync Release" command from the "Tools" menu.\n  It remains the customer's responsibility to verify proper and reliable operation in the actual application.\n  Component substitution and printed circuit board layout may significantly affect circuit performance or reliability.\n  Contact your local sales representative for assistance. This circuit is distributed to customers only for use with LTC parts.\n  Copyright © 2012 Linear Technology Inc. All rights reserved.
