Version 4
SHEET 1 2912 820
WIRE 96 -288 48 -288
WIRE 240 -288 96 -288
WIRE 96 -272 96 -288
WIRE 240 -272 240 -288
WIRE 432 -224 352 -224
WIRE 448 -224 432 -224
WIRE 528 -224 512 -224
WIRE 96 -192 96 -208
WIRE 432 -160 432 -224
WIRE 432 -160 352 -160
WIRE 240 -96 240 -112
WIRE -32 -64 -160 -64
WIRE 48 -64 48 -288
WIRE 48 -64 -32 -64
WIRE 240 -64 48 -64
WIRE -160 -48 -160 -64
WIRE -32 -48 -32 -64
WIRE 240 -48 240 -64
WIRE 48 16 48 -64
WIRE 80 16 48 16
WIRE 480 16 400 16
WIRE 576 16 480 16
WIRE 480 32 480 16
WIRE 576 32 576 16
WIRE -160 48 -160 32
WIRE -32 48 -32 16
WIRE -96 128 -112 128
WIRE 80 128 -16 128
WIRE 432 128 432 -160
WIRE 432 128 400 128
WIRE 480 128 480 96
WIRE 576 128 576 112
WIRE 0 240 -112 240
WIRE 80 240 0 240
WIRE -112 256 -112 240
WIRE -112 352 -112 336
WIRE 0 352 0 240
WIRE 80 352 0 352
WIRE 0 368 0 352
WIRE -112 432 -112 416
WIRE 0 464 0 448
WIRE 240 544 240 528
FLAG 240 544 0
FLAG -160 48 0
FLAG 0 464 0
FLAG -160 -64 IN
FLAG -112 432 0
FLAG 480 128 0
FLAG 576 128 0
FLAG -32 48 0
FLAG 240 -96 0
FLAG 528 -224 0
FLAG -112 128 0
FLAG 576 16 OUT
FLAG 96 -192 0
SYMBOL LT3086 240 240 R0
SYMATTR InstName U1
SYMBOL voltage -160 -64 R0
WINDOW 123 24 138 Left 2
WINDOW 39 24 117 Left 2
SYMATTR Value 10
SYMATTR InstName V1
SYMBOL res -16 352 R0
SYMATTR InstName R1
SYMATTR Value 357
SYMBOL res -128 240 R0
SYMATTR InstName R2
SYMATTR Value 1K
SYMBOL cap -128 352 R0
SYMATTR InstName C1
SYMATTR Value 10n
SYMBOL cap 464 32 R0
SYMATTR InstName C2
SYMATTR Value 10µ
SYMBOL res 560 16 R0
SYMATTR InstName Rload
SYMATTR Value 1
SYMBOL cap -48 -48 R0
SYMATTR InstName C3
SYMATTR Value 10µ
SYMBOL LT6650 240 -192 R0
SYMATTR InstName U2
SYMBOL cap 448 -208 R270
WINDOW 0 32 32 VTop 2
WINDOW 3 0 32 VBottom 2
SYMATTR InstName C4
SYMATTR Value 1µ
SYMATTR SpiceLine Rser=5
SYMBOL voltage 0 128 R90
WINDOW 0 -32 56 VBottom 2
WINDOW 3 32 56 VTop 2
WINDOW 123 0 0 Left 2
WINDOW 39 0 0 Left 2
SYMATTR InstName V2
SYMATTR Value PWL(3m 0 10m .75)
SYMBOL cap 80 -272 R0
SYMATTR InstName C5
SYMATTR Value 1µ
TEXT 488 512 Left 2 !.tran 12m startup
TEXT 256 -320 Bottom 2 ;LT3086  - 40V, 2.1A Low Dropout Adjustable Linear Regulator with Monitoring and Cable Drop Compensation\nAdjustable Voltage Controlled Current Source\nInput: 3V to 12V    Output: 0A to 2.1A constant current
TEXT -504 552 Left 2 ;Note:\n  Restrict input voltage range to limit power dissipation and prevent foldback current limit from interfering with proper operation\n  If the simulation model is not found please update with the "Sync Release" command from the "Tools" menu.\n  It remains the customer's responsibility to verify proper and reliable operation in the actual application.\n  Component substitution and printed circuit board layout may significantly affect circuit performance or reliability.\n  Contact your local sales representative for assistance. This circuit is distributed to customers only for use with LTC parts.\n  Copyright © 2015 Linear Technology Inc. All rights reserved.
TEXT -200 104 Right 2 ;Track adjust from \n0V to 750mV for \n0A to 2.1A constant current
