Version 4
SHEET 1 2020 764
WIRE -96 64 -192 64
WIRE -16 64 -96 64
WIRE 16 64 -16 64
WIRE 352 64 304 64
WIRE 464 64 352 64
WIRE 544 64 464 64
WIRE -192 80 -192 64
WIRE -96 80 -96 64
WIRE 352 80 352 64
WIRE 464 80 464 64
WIRE 544 80 544 64
WIRE -16 160 -16 64
WIRE 16 160 -16 160
WIRE 352 160 304 160
WIRE -192 176 -192 160
WIRE -96 176 -96 144
WIRE 352 176 352 160
WIRE 464 176 464 144
WIRE 544 176 544 160
WIRE 160 240 160 224
WIRE 352 272 352 256
FLAG -192 176 0
FLAG -192 64 IN
FLAG -96 176 0
FLAG 160 240 0
FLAG 352 272 0
FLAG 464 176 0
FLAG 544 64 OUT
FLAG 544 176 0
SYMBOL voltage -192 64 R0
WINDOW 123 0 0 Left 0
WINDOW 39 0 0 Left 0
SYMATTR InstName V1
SYMATTR Value 1.2
SYMBOL cap -112 80 R0
SYMATTR InstName C1
SYMATTR Value 10µ
SYMBOL PowerProducts\\LT3022 160 96 R0
SYMATTR InstName U1
SYMBOL res 336 160 R0
SYMATTR InstName R1
SYMATTR Value 200
SYMBOL res 336 64 R0
SYMATTR InstName R2
SYMATTR Value 698
SYMBOL cap 448 80 R0
SYMATTR InstName C2
SYMATTR Value 10µ
SYMBOL res 528 64 R0
SYMATTR InstName Rload
SYMATTR Value 0.9
TEXT -456 288 Left 0 ;Note:\n  If the simulation model is not found please update with the "Sync Release" command from the "Tools" menu.\n  It remains the customer's responsibility to verify proper and reliable operation in the actual application.\n  Component substitution and printed circuit board layout may significantly affect circuit performance or reliability.\n  Contact your local sales representative for assistance. This circuit is distributed to customers only for use with LTC parts.\n  Copyright © 2011 Linear Technology Inc. All rights reserved.
TEXT 160 8 Bottom 0 ;LT3022 - 1A, 0.9V to 10V, Very Low Dropout Linear Regulator\nInput: 1.2V       Output: 0.9V @ 1A
TEXT 472 240 Left 0 !.tran 500u startup
