Version 4
SHEET 1 1172 1564
WIRE 176 128 -16 128
WIRE 176 144 176 128
WIRE -16 256 -16 128
WIRE 48 256 -16 256
WIRE 320 256 304 256
WIRE 416 256 400 256
WIRE 176 384 176 368
WIRE 176 384 16 384
WIRE -16 400 -16 256
WIRE 176 400 -16 400
WIRE 176 416 176 400
WIRE -160 528 -256 528
WIRE -16 528 -16 400
WIRE -16 528 -160 528
WIRE 48 528 -16 528
WIRE 320 528 304 528
WIRE 416 528 416 256
WIRE 416 528 400 528
WIRE 480 528 416 528
WIRE 576 528 480 528
WIRE -256 544 -256 528
WIRE -160 544 -160 528
WIRE 480 544 480 528
WIRE 576 544 576 528
WIRE -256 640 -256 624
WIRE -160 640 -160 608
WIRE 480 640 480 608
WIRE 576 640 576 624
WIRE 16 656 16 384
WIRE 176 656 176 640
WIRE 176 656 16 656
WIRE -16 672 -16 528
WIRE 176 672 -16 672
WIRE 176 688 176 672
WIRE -16 800 -16 672
WIRE 48 800 -16 800
WIRE 320 800 304 800
WIRE 416 800 416 528
WIRE 416 800 400 800
WIRE 16 944 16 656
WIRE 176 944 176 912
WIRE 176 944 16 944
WIRE 16 960 16 944
WIRE 176 960 176 944
WIRE 16 1056 16 1024
WIRE 176 1056 176 1040
FLAG -256 640 0
FLAG -160 640 0
FLAG -256 528 IN
FLAG 176 1056 0
FLAG 480 640 0
FLAG 576 528 OUT
FLAG 576 640 0
FLAG 16 1056 0
SYMBOL PowerProducts\\LT3080 176 256 R0
SYMATTR InstName U1
SYMBOL cap -176 544 R0
SYMATTR InstName C1
SYMATTR Value 2.2µ
SYMBOL voltage -256 528 R0
WINDOW 123 0 0 Left 0
WINDOW 39 0 0 Left 0
SYMATTR InstName V1
SYMATTR Value 12
SYMBOL PowerProducts\\LT3080 176 528 R0
SYMATTR InstName U2
SYMBOL PowerProducts\\LT3080 176 800 R0
SYMATTR InstName U3
SYMBOL res 160 944 R0
SYMATTR InstName R1
SYMATTR Value 100K
SYMBOL cap 464 544 R0
SYMATTR InstName C2
SYMATTR Value 22µ
SYMBOL res 416 240 R90
WINDOW 0 0 56 VBottom 0
WINDOW 3 32 56 VTop 0
SYMATTR InstName R2
SYMATTR Value 20m
SYMBOL res 416 512 R90
WINDOW 0 0 56 VBottom 0
WINDOW 3 32 56 VTop 0
SYMATTR InstName R3
SYMATTR Value 20m
SYMBOL res 416 784 R90
WINDOW 0 0 56 VBottom 0
WINDOW 3 32 56 VTop 0
SYMATTR InstName R4
SYMATTR Value 20m
SYMBOL cap 0 960 R0
SYMATTR InstName C3
SYMATTR Value 10n
SYMBOL res 560 528 R0
SYMATTR InstName Rload
SYMATTR Value 1
TEXT 176 120 Bottom 0 ;LT3080 - 1.1A Single Resistor Low Dropout Regulator in Parallel Operation\nInput: 12V       Output: 3V @ 3A
TEXT 488 960 Left 0 !.tran 15m startup
TEXT -424 1072 Left 0 ;Note:\n  If the simulation model is not found please update with the "Sync Release" command from the "Tools" menu.\n  It remains the customer's responsibility to verify proper and reliable operation in the actual application.\n  Component substitution and printed circuit board layout may significantly affect circuit performance or reliability.\n  Contact your local sales representative for assistance. This circuit is distributed to customers only for use with LTC parts.\n  Copyright © 2011 Linear Technology Inc. All rights reserved.
