Version 4
SHEET 1 1700 680
WIRE 272 -64 272 -80
WIRE 272 16 272 0
WIRE -80 80 -176 80
WIRE 16 80 -80 80
WIRE 112 80 16 80
WIRE 144 80 112 80
WIRE 560 80 400 80
WIRE 656 80 560 80
WIRE 784 80 656 80
WIRE 880 80 784 80
WIRE -176 96 -176 80
WIRE -80 96 -80 80
WIRE 16 96 16 80
WIRE 560 96 560 80
WIRE 880 96 880 80
WIRE 784 112 784 80
WIRE 112 176 112 80
WIRE 144 176 112 176
WIRE 560 176 560 160
WIRE 560 176 400 176
WIRE 656 176 656 160
WIRE 656 176 560 176
WIRE -176 192 -176 176
WIRE -80 192 -80 160
WIRE 656 192 656 176
WIRE 784 192 784 176
WIRE 880 192 880 176
WIRE 16 272 16 176
WIRE 144 272 16 272
WIRE 464 272 400 272
WIRE 560 272 464 272
WIRE 464 288 464 272
WIRE 560 288 560 272
WIRE 656 288 656 272
WIRE 64 368 48 368
WIRE 144 368 128 368
WIRE 416 368 400 368
WIRE 464 384 464 352
WIRE 560 384 560 368
FLAG 48 368 0
FLAG -176 192 0
FLAG 656 288 0
FLAG 784 192 0
FLAG 880 192 0
FLAG -176 80 IN
FLAG 880 80 OUT
FLAG 272 -80 0
FLAG 416 368 0
FLAG -80 192 0
FLAG 464 384 0
FLAG 560 384 0
SYMBOL cap 128 352 R90
WINDOW 0 0 32 VBottom 2
WINDOW 3 32 32 VTop 2
SYMATTR InstName C1
SYMATTR Value 1n
SYMBOL voltage -176 80 R0
WINDOW 123 0 0 Left 2
WINDOW 39 0 0 Left 2
SYMATTR InstName V1
SYMATTR Value 5
SYMBOL res 0 80 R0
SYMATTR InstName R1
SYMATTR Value 499K
SYMBOL res 640 64 R0
SYMATTR InstName R2
SYMATTR Value 280K
SYMBOL res 640 176 R0
SYMATTR InstName R3
SYMATTR Value 61.9K
SYMBOL cap 448 288 R0
WINDOW 39 24 77 Left 2
SYMATTR InstName C2
SYMATTR Value 22n
SYMBOL cap 768 112 R0
WINDOW 39 24 77 Left 2
SYMATTR Value 10µ
SYMATTR InstName C3
SYMBOL cap 544 96 R0
SYMATTR InstName C4
SYMATTR Value 10n
SYMBOL LT3066 272 224 R0
SYMATTR InstName U1
SYMBOL cap 256 0 M180
WINDOW 0 24 56 Left 2
WINDOW 3 24 8 Left 2
SYMATTR InstName C5
SYMATTR Value .47µ
SYMBOL res 544 272 R0
SYMATTR InstName R4
SYMATTR Value 604
SYMBOL cap -96 96 R0
SYMATTR InstName C6
SYMATTR Value 10µ
SYMBOL res 864 80 R0
SYMATTR InstName Rload
SYMATTR Value 7.33
TEXT 760 384 Left 2 !.tran 50m startup
TEXT 320 -112 Bottom 2 ;LT3066 - 45V Vin, 500mA Low Noise, Linear Regulator with Programmable Current Limit and Active Output Discharge\n3.3V Supply with 497mA Precision Current Limit\nInput: 3.6V to 45V     Output: 3.3V @ 450mA
TEXT -344 432 Left 2 ;Note:\n  If the simulation model is not found please update with the "Sync Release" command from the "Tools" menu.\n  It remains the customer's responsibility to verify proper and reliable operation in the actual application.\n  Component substitution and printed circuit board layout may significantly affect circuit performance or reliability.\n  Contact your local sales representative for assistance. This circuit is distributed to customers only for use with LTC parts.\n  Copyright © 2016 Linear Technology Inc. All rights reserved.
