Version 4
SHEET 1 1288 820
WIRE -144 80 -240 80
WIRE -64 80 -144 80
WIRE -48 80 -64 80
WIRE 272 80 240 80
WIRE 368 80 272 80
WIRE 480 80 368 80
WIRE 576 80 480 80
WIRE -240 96 -240 80
WIRE -144 96 -144 80
WIRE 368 96 368 80
WIRE 480 96 480 80
WIRE 576 96 576 80
WIRE 272 144 240 144
WIRE -64 176 -64 80
WIRE -48 176 -64 176
WIRE -240 192 -240 176
WIRE -144 192 -144 160
WIRE 368 192 368 176
WIRE 368 192 240 192
WIRE 480 192 480 160
WIRE 576 192 576 176
WIRE 368 288 368 272
WIRE 272 320 240 320
WIRE 368 320 272 320
WIRE 480 320 368 320
WIRE 576 320 480 320
WIRE -64 336 -64 176
WIRE -48 336 -64 336
WIRE 368 336 368 320
WIRE 480 336 480 320
WIRE 576 336 576 320
WIRE 272 384 240 384
WIRE -48 432 -64 432
WIRE 368 432 368 416
WIRE 368 432 240 432
WIRE 480 432 480 400
WIRE 576 432 576 416
WIRE 368 528 368 512
FLAG -64 432 0
FLAG 368 288 0
FLAG 480 192 0
FLAG 576 192 0
FLAG -240 192 0
FLAG 576 80 OUT1
FLAG -144 192 0
FLAG -240 80 IN
FLAG 368 528 0
FLAG 480 432 0
FLAG 576 432 0
FLAG 576 320 OUT2
SYMBOL res 352 80 R0
SYMATTR InstName R1
SYMATTR Value 422K
SYMBOL res 352 176 R0
SYMATTR InstName R2
SYMATTR Value 249K
SYMBOL voltage -240 80 R0
WINDOW 123 0 0 Left 2
WINDOW 39 0 0 Left 2
SYMATTR InstName V1
SYMATTR Value 3.7
SYMBOL res 560 80 R0
SYMATTR InstName Rload1
SYMATTR Value 6.6
SYMBOL cap 464 96 R0
SYMATTR InstName C1
SYMATTR Value 10µ
SYMBOL cap -160 96 R0
SYMATTR InstName C2
SYMATTR Value 1µ
SYMBOL res 352 320 R0
SYMATTR InstName R3
SYMATTR Value 261K
SYMBOL res 352 416 R0
SYMATTR InstName R4
SYMATTR Value 249K
SYMBOL res 560 320 R0
SYMATTR InstName Rload2
SYMATTR Value 25
SYMBOL cap 464 336 R0
SYMATTR InstName C3
SYMATTR Value 10µ
SYMBOL cap 256 80 R0
WINDOW 0 41 29 Left 2
SYMATTR InstName C4
SYMATTR Value .01µ
SYMBOL cap 256 320 R0
WINDOW 0 43 31 Left 2
SYMATTR InstName C5
SYMATTR Value .01µ
SYMBOL PowerProducts\\LT3024 96 256 R0
SYMATTR InstName U1
TEXT 520 512 Left 2 !.tran 40m startup
TEXT 184 32 Bottom 2 ;LT3024 - Dual 100mA/500mA, Low Dropout, Low Noise, µPower Regulator\nDual Low Noise Regulators\nInput: 3.7V to 20V     Output: 3.3V @ 500mA & 2.5V @ 100mA
TEXT -408 544 Left 2 ;Note:\n  If the simulation model is not found please update with the "Sync Release" command from the "Tools" menu.\n  It remains the customer's responsibility to verify proper and reliable operation in the actual application.\n  Component substitution and printed circuit board layout may significantly affect circuit performance or reliability.\n  Contact your local sales representative for assistance. This circuit is distributed to customers only for use with LTC parts.\n  Copyright © 2016 Linear Technology Inc. All rights reserved.
