Version 4
SHEET 1 996 680
WIRE -112 -512 -224 -512
WIRE -16 -512 -112 -512
WIRE 0 -512 -16 -512
WIRE 336 -512 304 -512
WIRE 416 -512 336 -512
WIRE 528 -512 416 -512
WIRE 624 -512 528 -512
WIRE -224 -496 -224 -512
WIRE -112 -496 -112 -512
WIRE 336 -496 336 -512
WIRE 624 -496 624 -512
WIRE 528 -480 528 -512
WIRE 416 -464 416 -512
WIRE 0 -416 -32 -416
WIRE 336 -416 336 -432
WIRE 336 -416 304 -416
WIRE -224 -400 -224 -416
WIRE -112 -400 -112 -432
WIRE 528 -400 528 -416
WIRE 624 -400 624 -416
WIRE -16 -320 -16 -512
WIRE 0 -320 -16 -320
WIRE 416 -320 416 -384
WIRE 416 -320 304 -320
WIRE 432 -320 416 -320
WIRE 528 -320 512 -320
WIRE -112 -224 -224 -224
WIRE -32 -224 -32 -416
WIRE -32 -224 -112 -224
WIRE 0 -224 -32 -224
WIRE 336 -224 304 -224
WIRE 416 -224 336 -224
WIRE 528 -224 416 -224
WIRE 624 -224 528 -224
WIRE -224 -208 -224 -224
WIRE -112 -208 -112 -224
WIRE 336 -208 336 -224
WIRE 624 -208 624 -224
WIRE 528 -192 528 -224
WIRE 416 -176 416 -224
WIRE 336 -128 336 -144
WIRE 336 -128 304 -128
WIRE -224 -112 -224 -128
WIRE -112 -112 -112 -144
WIRE 528 -112 528 -128
WIRE 624 -112 624 -128
WIRE 416 -32 416 -96
WIRE 416 -32 304 -32
WIRE 432 -32 416 -32
WIRE 528 -32 512 -32
WIRE 160 32 160 16
FLAG -224 -400 0
FLAG 528 -400 0
FLAG 624 -400 0
FLAG 160 32 0
FLAG 624 -512 OUT1
FLAG -224 -512 IN1
FLAG 528 -320 0
FLAG 528 -112 0
FLAG 624 -112 0
FLAG 624 -224 OUT2
FLAG 528 -32 0
FLAG -224 -112 0
FLAG -224 -224 IN2
FLAG -112 -112 0
FLAG -112 -400 0
SYMBOL voltage -224 -512 R0
WINDOW 123 24 146 Left 0
WINDOW 39 24 125 Left 0
SYMATTR InstName V1
SYMATTR Value 3
SYMBOL cap 512 -480 R0
SYMATTR InstName C1
SYMATTR Value 3.3µ
SYMBOL res 608 -512 R0
SYMATTR InstName Rload1
SYMATTR Value 3.6
SYMBOL cap 320 -496 R0
SYMATTR InstName C2
SYMATTR Value .01µ
SYMBOL PowerProducts\\LT3029 160 -272 R0
SYMATTR InstName U1
SYMBOL res 400 -480 R0
SYMATTR InstName R1
SYMATTR Value 113K
SYMBOL res 416 -304 R270
WINDOW 0 32 56 VTop 0
WINDOW 3 0 56 VBottom 0
SYMATTR InstName R2
SYMATTR Value 237K
SYMBOL cap 512 -192 R0
SYMATTR InstName C3
SYMATTR Value 3.3µ
SYMBOL res 608 -224 R0
SYMATTR InstName Rload2
SYMATTR Value 3
SYMBOL cap 320 -208 R0
SYMATTR InstName C4
SYMATTR Value .01µ
SYMBOL res 400 -192 R0
SYMATTR InstName R3
SYMATTR Value 54.9K
SYMBOL res 416 -16 R270
WINDOW 0 32 56 VTop 0
WINDOW 3 0 56 VBottom 0
SYMATTR InstName R4
SYMATTR Value 237K
SYMBOL cap -128 -496 R0
SYMATTR InstName C5
SYMATTR Value 1µ
SYMBOL cap -128 -208 R0
SYMATTR InstName C6
SYMATTR Value 1µ
SYMBOL voltage -224 -224 R0
WINDOW 123 24 146 Left 0
WINDOW 39 24 125 Left 0
SYMATTR InstName V2
SYMATTR Value 3
TEXT 536 40 Left 0 !.tran 50m startup
TEXT 152 -568 Bottom 0 ;LT3029 - Dual 500mA/500mA Low Dropout, Low Noise, µPower Linear Regulator\nInput1: 3V       Output1: 1.8V @ 0.5A\nInput2: 3V       Output2: 1.5V @ 0.5A
TEXT -464 56 Left 0 ;Note:\n  If the simulation model is not found please update with the "Sync Release" command from the "Tools" menu.\n  It remains the customer's responsibility to verify proper and reliable operation in the actual application.\n  Component substitution and printed circuit board layout may significantly affect circuit performance or reliability.\n  Contact your local sales representative for assistance. This circuit is distributed to customers only for use with LTC parts.\n  Copyright © 2011 Linear Technology Inc. All rights reserved.
