Version 4
SHEET 1 2020 764
WIRE -16 -128 -112 -128
WIRE 48 -128 -16 -128
WIRE 96 -128 48 -128
WIRE 432 -128 352 -128
WIRE 560 -128 432 -128
WIRE 672 -128 560 -128
WIRE 736 -128 672 -128
WIRE 832 -128 736 -128
WIRE 944 -128 832 -128
WIRE -112 -112 -112 -128
WIRE -16 -112 -16 -128
WIRE 432 -112 432 -128
WIRE 560 -112 560 -128
WIRE 736 -112 736 -128
WIRE 832 -112 832 -128
WIRE 944 -112 944 -128
WIRE 48 -32 48 -128
WIRE 96 -32 48 -32
WIRE 432 -32 432 -48
WIRE 432 -32 352 -32
WIRE 560 -32 432 -32
WIRE -112 -16 -112 -32
WIRE -16 -16 -16 -48
WIRE 736 -16 736 -48
WIRE 832 -16 832 -48
WIRE 944 -16 944 -32
WIRE 560 0 560 -32
WIRE -16 64 -64 64
WIRE 96 64 64 64
WIRE 384 64 352 64
WIRE 480 64 384 64
WIRE 384 80 384 64
WIRE 560 96 560 80
WIRE 16 160 0 160
WIRE 96 160 80 160
WIRE 384 160 384 144
WIRE 384 160 352 160
WIRE 480 160 480 144
WIRE 480 160 384 160
WIRE 480 192 480 160
WIRE -64 256 -64 64
WIRE 672 256 672 -128
WIRE 672 256 -64 256
FLAG -112 -16 0
FLAG -112 -128 IN
FLAG -16 -16 0
FLAG 560 96 0
FLAG 736 -16 0
FLAG 944 -128 OUT
FLAG 944 -16 0
FLAG 480 192 0
FLAG 0 160 0
FLAG 832 -16 0
SYMBOL voltage -112 -128 R0
WINDOW 123 0 0 Left 2
WINDOW 39 0 0 Left 2
SYMATTR InstName V1
SYMATTR Value 5
SYMBOL cap -32 -112 R0
SYMATTR InstName C1
SYMATTR Value 10µ
SYMBOL res 544 -16 R0
SYMATTR InstName R1
SYMATTR Value 60.4K
SYMBOL res 544 -128 R0
SYMATTR InstName R2
SYMATTR Value 274K
SYMBOL cap 720 -112 R0
SYMATTR InstName C2
SYMATTR Value 4.7µ
SYMBOL res 928 -128 R0
SYMATTR InstName Rload
SYMATTR Value 7.33
SYMBOL cap 368 80 R0
SYMATTR InstName C3
SYMATTR Value .022µ
SYMBOL cap 416 -112 R0
WINDOW 3 20 61 Left 2
SYMATTR Value 1n
SYMATTR InstName C4
SYMBOL LT3065 224 16 R0
SYMATTR InstName U1
SYMBOL res 464 48 R0
SYMATTR InstName R3
SYMATTR Value 604
SYMBOL cap 80 144 R90
WINDOW 0 0 32 VBottom 2
WINDOW 3 32 32 VTop 2
SYMATTR InstName C5
SYMATTR Value 0.01µ
SYMBOL res 80 48 R90
WINDOW 0 0 56 VBottom 2
WINDOW 3 32 56 VTop 2
SYMATTR InstName R4
SYMATTR Value 499K
SYMBOL cap 816 -112 R0
SYMATTR InstName C6
SYMATTR Value 4.7µ
TEXT -184 264 Left 2 ;Note:\n  If the simulation model is not found please update with the "Sync Release" command from the "Tools" menu.\n  It remains the customer's responsibility to verify proper and reliable operation in the actual application.\n  Component substitution and printed circuit board layout may significantly affect circuit performance or reliability.\n  Contact your local sales representative for assistance. This circuit is distributed to customers only for use with LTC parts.\n  Copyright © 2014 Linear Technology Inc. All rights reserved.
TEXT 368 -216 Bottom 2 ;LT3065 - 45V Vin, 500mA Low Noise, Linear Regulator with Programmable Current Limit and Power Good\n3.3V Supply with 490mA Precision Current Limit\nInput: 3.6V to 45V       Output: 3.3V @ 450mA
TEXT 744 152 Left 2 !.tran 50m startup
