Version 4
SHEET 1 1576 828
WIRE -176 -176 -272 -176
WIRE -80 -176 -176 -176
WIRE -16 -176 -80 -176
WIRE 224 -176 -16 -176
WIRE 464 -176 224 -176
WIRE 512 -176 464 -176
WIRE -272 -160 -272 -176
WIRE -176 -160 -176 -176
WIRE 224 -160 224 -176
WIRE -80 -128 -80 -176
WIRE 512 -128 512 -176
WIRE -16 -96 -16 -176
WIRE 0 -96 -16 -96
WIRE 464 -96 464 -176
WIRE 464 -96 448 -96
WIRE -272 -64 -272 -80
WIRE -176 -64 -176 -96
WIRE -80 0 -80 -48
WIRE 0 0 -80 0
WIRE 512 0 512 -48
WIRE 512 0 448 0
WIRE -96 96 -112 96
WIRE -16 96 -32 96
WIRE 0 96 -16 96
WIRE 464 96 448 96
WIRE 480 96 464 96
WIRE 560 96 544 96
WIRE -16 192 -16 96
WIRE 0 192 -16 192
WIRE 464 192 464 96
WIRE 464 192 448 192
WIRE -368 288 -496 288
WIRE 0 288 -368 288
WIRE 832 288 448 288
WIRE 928 288 832 288
WIRE -496 304 -496 288
WIRE -368 304 -368 288
WIRE 832 304 832 288
WIRE 928 304 928 288
WIRE -192 384 -304 384
WIRE 0 384 -192 384
WIRE 624 384 448 384
WIRE 736 384 624 384
WIRE -496 400 -496 384
WIRE -368 400 -368 368
WIRE -304 400 -304 384
WIRE -192 400 -192 384
WIRE 624 400 624 384
WIRE 736 400 736 384
WIRE 832 400 832 368
WIRE 928 400 928 384
WIRE -80 480 -96 480
WIRE 0 480 -16 480
WIRE 464 480 448 480
WIRE 560 480 544 480
WIRE -304 496 -304 480
WIRE -192 496 -192 464
WIRE 624 496 624 464
WIRE 736 496 736 480
WIRE 0 576 -16 576
WIRE 464 576 448 576
FLAG -272 -64 0
FLAG -112 96 0
FLAG 560 96 0
FLAG -304 496 0
FLAG -192 496 0
FLAG -96 480 0
FLAG -16 576 0
FLAG -496 400 0
FLAG -368 400 0
FLAG 736 496 0
FLAG 624 496 0
FLAG 560 480 0
FLAG 464 576 0
FLAG 928 400 0
FLAG 832 400 0
FLAG -272 -176 IN
FLAG -496 288 OUT1
FLAG 928 288 OUT2
FLAG -176 -64 0
SYMBOL LT3095 224 240 R0
SYMATTR InstName U1
SYMBOL VOLTAGE -272 -176 R0
WINDOW 123 0 0 Left 2
WINDOW 39 0 0 Left 2
SYMATTR InstName V1
SYMATTR Value 4
SYMBOL ind -96 -144 R0
SYMATTR InstName L1
SYMATTR Value 6.8µ
SYMATTR SpiceLine Rser=340m
SYMBOL ind 496 -144 R0
SYMATTR InstName L2
SYMATTR Value 10µ
SYMATTR SpiceLine Rser=350m
SYMBOL cap -32 80 R90
WINDOW 0 0 32 VBottom 2
WINDOW 3 32 32 VTop 2
SYMATTR InstName C1
SYMATTR Value 10µ
SYMATTR SpiceLine Rser=10m
SYMBOL cap 480 112 R270
WINDOW 0 32 32 VTop 2
WINDOW 3 0 32 VBottom 2
SYMATTR InstName C2
SYMATTR Value 10µ
SYMATTR SpiceLine Rser=10m
SYMBOL cap -208 400 R0
SYMATTR InstName C3
SYMATTR Value .001µ
SYMBOL res -320 384 R0
WINDOW 3 21 85 Left 2
SYMATTR Value 100K
SYMATTR InstName R1
SYMBOL cap -16 464 R90
WINDOW 0 0 32 VBottom 2
WINDOW 3 32 32 VTop 2
SYMATTR InstName C4
SYMATTR Value 0.1µ
SYMBOL cap -384 304 R0
SYMATTR InstName C5
SYMATTR Value 2.2µ
SYMATTR SpiceLine Rser=3m
SYMBOL res -512 288 R0
SYMATTR InstName Rload1
SYMATTR Value 100
SYMBOL cap 608 400 R0
SYMATTR InstName C6
SYMATTR Value .001µ
SYMBOL res 720 384 R0
SYMATTR Value 300K
SYMATTR InstName R2
SYMBOL cap 816 304 R0
SYMATTR InstName C8
SYMATTR Value 2.2µ
SYMATTR SpiceLine Rser=3m
SYMBOL res 912 288 R0
SYMATTR InstName Rload2
SYMATTR Value 300
SYMBOL res 448 496 R270
WINDOW 0 32 56 VTop 2
WINDOW 3 0 56 VBottom 2
SYMATTR InstName R3
SYMATTR Value 100K
SYMBOL cap -192 -160 R0
WINDOW 3 39 33 Left 2
WINDOW 123 24 59 Left 2
SYMATTR Value 2.2µ
SYMATTR Value2 x2
SYMATTR InstName C7
TEXT 744 560 Left 2 !.tran 2m startup
TEXT 216 -208 Bottom 2 ;LT3095 - Dual-Channel Low Noise Bias Generators\nDual Low Noise, Low Ripple Bias Generator\nInput: 3V to 20V     Output1: 5V @ 50mA; Output2: 15V @ 50mA
TEXT -480 656 Left 2 ;Note:\n  If the simulation model is not found please update with the "Sync Release" command from the "Tools" menu.\n  It remains the customer's responsibility to verify proper and reliable operation in the actual application.\n  Component substitution and printed circuit board layout may significantly affect circuit performance or reliability.\n  Contact your local sales representative for assistance. This circuit is distributed to customers only for use with LTC parts.\n  Copyright © 2016 Linear Technology Inc. All rights reserved.
