Version 4
SHEET 1 1804 680
WIRE -160 -288 -256 -288
WIRE -64 -288 -160 -288
WIRE 32 -288 -64 -288
WIRE -256 -272 -256 -288
WIRE -160 -272 -160 -288
WIRE -256 -176 -256 -192
WIRE -160 -176 -160 -208
WIRE -64 -144 -64 -288
WIRE 32 -144 -64 -144
WIRE 608 -144 576 -144
WIRE 656 -144 608 -144
WIRE 768 -144 656 -144
WIRE 864 -144 768 -144
WIRE -64 -128 -64 -144
WIRE 768 -128 768 -144
WIRE 864 -128 864 -144
WIRE 608 -64 608 -144
WIRE 608 -64 576 -64
WIRE 656 -64 656 -144
WIRE -64 -32 -64 -48
WIRE 32 -32 -64 -32
WIRE 768 -32 768 -64
WIRE 864 -32 864 -48
WIRE 144 32 144 16
WIRE 272 32 272 16
WIRE 368 32 368 16
WIRE 496 32 496 16
WIRE 656 32 656 16
WIRE 656 32 496 32
WIRE 656 48 656 32
WIRE 144 128 144 96
WIRE 368 128 368 112
WIRE 656 144 656 128
FLAG 272 32 0
FLAG -256 -288 IN
FLAG 656 144 0
FLAG 368 128 0
FLAG 144 128 0
FLAG 768 -32 0
FLAG 864 -32 0
FLAG 864 -144 OUT
FLAG -256 -176 0
FLAG -160 -176 0
SYMBOL voltage -256 -288 R0
WINDOW 123 24 60 Left 2
WINDOW 39 0 0 Left 2
SYMATTR InstName V1
SYMATTR Value 5
SYMBOL res -80 -144 R0
SYMATTR InstName R1
SYMATTR Value 200K
SYMBOL res 640 -80 R0
SYMATTR InstName R2
SYMATTR Value 453K
SYMBOL res 640 32 R0
SYMATTR InstName R3
SYMATTR Value 49.9K
SYMBOL res 352 16 R0
SYMATTR InstName R4
SYMATTR Value 510
SYMBOL cap 128 32 R0
WINDOW 39 24 65 Left 2
WINDOW 3 39 36 Left 2
SYMATTR SpiceLine Rpar=33.2K
SYMATTR Value 4.7µ
SYMATTR InstName C1
SYMBOL cap 752 -128 R0
SYMATTR InstName C2
SYMATTR Value 4.7µ
SYMATTR SpiceLine Rser=3m
SYMBOL res 848 -144 R0
SYMATTR InstName Rload
SYMATTR Value 16.5
SYMBOL LT3042 272 -144 R0
SYMATTR InstName U1
SYMBOL cap -176 -272 R0
SYMATTR InstName C3
SYMATTR Value 4.7µ
SYMATTR SpiceLine Rser=3m
TEXT 808 104 Left 2 !.tran 1 startup
TEXT 312 -352 Bottom 2 ;LT3042 - 20V, 200mA, Ultralow Noise, Ultrahigh PSRR RF Linear Regulator\nLow Noise, High PSRR RF Linear Regulator\nInput: 3.8V to 20V       Output: 3.3V @ 200mA\n(Current limited internally by Vin to Vout differential, refer to datasheet)
TEXT -264 160 Left 2 ;Note:\n  If the simulation model is not found please update with the "Sync Release" command from the "Tools" menu.\n  It remains the customer's responsibility to verify proper and reliable operation in the actual application.\n  Component substitution and printed circuit board layout may significantly affect circuit performance or reliability.\n  Contact your local sales representative for assistance. This circuit is distributed to customers only for use with LTC parts.\n  Copyright ©2015 Linear Technology Inc. All rights reserved.
