Version 4
SHEET 1 3884 1516
WIRE 3152 832 2640 832
WIRE 2576 896 2480 896
WIRE 2704 896 2576 896
WIRE 2720 896 2704 896
WIRE 3152 896 3152 832
WIRE 3152 896 3008 896
WIRE 3264 896 3152 896
WIRE 3344 896 3264 896
WIRE 2480 912 2480 896
WIRE 3152 912 3152 896
WIRE 3264 912 3264 896
WIRE 3344 912 3344 896
WIRE 2576 928 2576 896
WIRE 2640 976 2640 832
WIRE 2704 992 2704 896
WIRE 2720 992 2704 992
WIRE 3040 992 3008 992
WIRE 3040 1008 3040 992
WIRE 3152 1008 3152 992
WIRE 3152 1008 3040 1008
WIRE 3264 1008 3264 976
WIRE 3344 1008 3344 992
WIRE 2480 1024 2480 992
WIRE 2576 1024 2576 992
WIRE 3152 1024 3152 1008
WIRE 2640 1088 2640 1056
WIRE 2720 1088 2640 1088
WIRE 3024 1088 3008 1088
WIRE 3104 1088 3088 1088
WIRE 3152 1120 3152 1104
WIRE 2864 1168 2864 1136
FLAG 2480 1024 0
FLAG 2864 1168 0
FLAG 3152 1120 0
FLAG 3264 1008 0
FLAG 3344 1008 0
FLAG 3344 896 OUT
FLAG 2576 1024 0
FLAG 2480 896 IN
FLAG 3104 1088 0
SYMBOL VOLTAGE 2480 896 R0
WINDOW 0 34 44 Left 0
WINDOW 3 29 98 Left 0
WINDOW 123 0 0 Left 0
WINDOW 39 0 0 Left 0
SYMATTR InstName V1
SYMATTR Value 30
SYMBOL RES 3136 896 R0
SYMATTR InstName R1
SYMATTR Value 412K
SYMBOL res 3136 1120 M180
WINDOW 0 36 76 Left 0
WINDOW 3 36 40 Left 0
SYMATTR InstName R2
SYMATTR Value 1Meg
SYMBOL cap 3248 912 R0
SYMATTR InstName C2
SYMATTR Value 1µ
SYMATTR SpiceLine Rser=5m
SYMBOL cap 2560 928 R0
SYMATTR InstName C4
SYMATTR Value 1µ
SYMATTR SpiceLine Rser=5m
SYMBOL res 3328 896 R0
SYMATTR InstName Rload
SYMATTR Value 36
SYMBOL PowerProducts\\LT3011 2864 992 R0
SYMATTR InstName U1
SYMBOL res 2624 960 R0
WINDOW 3 23 85 Left 0
SYMATTR Value 499K
SYMATTR InstName R3
SYMBOL cap 3024 1104 R270
WINDOW 0 32 32 VTop 0
WINDOW 3 0 32 VBottom 0
SYMATTR InstName C1
SYMATTR Value 1000p
TEXT 3264 1096 Left 0 !.tran 10m startup
TEXT 2360 1184 Left 0 ;Note:\n  If the simulation model is not found please update with the "Sync Release" command from the "Tools" menu.\n  It remains the customer's responsibility to verify proper and reliable operation in the actual application.\n  Component substitution and printed circuit board layout may significantly affect circuit performance or reliability\n  Contact your local sales representative for assistance. This circuit is distributed to customers only for use with LTC parts\n  Copyright © 2009 Linear Technology Inc. All rights reserved.
TEXT 2944 816 Bottom 0 ;LT3011 - 50mA, 3V to 80V Low Dropout µPower Linear Regulator with PWRGD\nInput: 30V       Output: 1.8V @ 50mA
