Version 4
SHEET 1 1400 680
WIRE 432 -48 96 -48
WIRE 544 -48 432 -48
WIRE 656 -48 544 -48
WIRE 432 -32 432 -48
WIRE 656 -32 656 -48
WIRE 544 -16 544 -48
WIRE 16 0 -112 0
WIRE 256 0 16 0
WIRE -112 16 -112 0
WIRE 256 16 256 0
WIRE 16 32 16 0
WIRE 96 64 96 -48
WIRE 112 64 96 64
WIRE 432 64 432 48
WIRE 432 64 400 64
WIRE 544 64 544 48
WIRE 656 64 656 48
WIRE -112 112 -112 96
WIRE 16 112 16 96
WIRE 96 128 96 64
WIRE 112 128 96 128
WIRE 784 128 400 128
WIRE 96 192 96 128
WIRE 112 192 96 192
WIRE 560 192 400 192
WIRE 672 192 560 192
WIRE 784 192 784 128
WIRE 784 192 672 192
WIRE 896 192 784 192
WIRE 560 208 560 192
WIRE 672 208 672 192
WIRE 784 208 784 192
WIRE 896 208 896 192
WIRE 112 256 96 256
WIRE 416 256 400 256
WIRE 512 256 496 256
WIRE 560 304 560 272
WIRE 672 304 672 272
WIRE 784 304 784 272
WIRE 896 304 896 288
WIRE 112 320 96 320
WIRE 416 320 400 320
WIRE 32 384 16 384
WIRE 112 384 96 384
WIRE 416 384 400 384
WIRE 496 384 480 384
WIRE 256 432 256 416
FLAG 496 384 0
FLAG 256 432 0
FLAG 96 320 0
FLAG 96 256 0
FLAG -112 112 0
FLAG 656 64 0
FLAG 16 384 0
FLAG 784 304 0
FLAG 896 304 0
FLAG -112 0 IN
FLAG 512 256 0
FLAG 896 192 OUT
FLAG 672 304 0
FLAG 544 64 0
FLAG 16 112 0
FLAG 560 304 0
SYMBOL cap 480 368 R90
WINDOW 0 0 32 VBottom 2
WINDOW 3 32 32 VTop 2
SYMATTR InstName C1
SYMATTR Value .01µ
SYMBOL voltage 656 -48 R0
WINDOW 123 0 0 Left 2
WINDOW 39 0 0 Left 2
SYMATTR InstName V1
SYMATTR Value 3.3
SYMBOL voltage -112 0 R0
SYMATTR InstName V2
SYMATTR Value 1.2
SYMBOL res 880 192 R0
SYMATTR InstName Rload
SYMATTR Value .18
SYMBOL cap 32 400 R270
WINDOW 0 32 32 VTop 2
WINDOW 3 0 32 VBottom 2
SYMATTR InstName C2
SYMATTR Value .001µ
SYMBOL cap 768 208 R0
SYMATTR Value 4.7µ
SYMATTR InstName C3
SYMBOL res 416 -48 R0
SYMATTR InstName R2
SYMATTR Value 60K
SYMBOL PowerProducts\\LT3071 256 224 R0
SYMATTR InstName U1
SYMBOL res 512 240 R90
WINDOW 0 0 56 VBottom 2
WINDOW 3 32 56 VTop 2
SYMATTR InstName R3
SYMATTR Value 1K
SYMBOL cap 544 208 R0
SYMATTR InstName C4
SYMATTR Value 2.2µ
SYMBOL cap 656 208 R0
SYMATTR InstName C5
SYMATTR Value 2.2µ
SYMBOL cap 0 32 R0
SYMATTR InstName C6
SYMATTR Value 330µ
SYMBOL cap 528 -16 R0
SYMATTR InstName C7
SYMATTR Value 2.2µ
TEXT 784 376 Left 2 !.tran 2m startup
TEXT 280 -64 Bottom 2 ;LT3071 - 5A, Low Noise, Programmable Ouput, 85mV Dropout Linear Regulator with Analog Margining\n5A Programmable 85mV Dropout Linear Regulator\nInput: 1.1V to 3V       Output: 0.9V @ 5A
TEXT -280 448 Left 2 ;Note:\n  If the simulation model is not found please update with the "Sync Release" command from the "Tools" menu.\n  It remains the customer's responsibility to verify proper and reliable operation in the actual application.\n  Component substitution and printed circuit board layout may significantly affect circuit performance or reliability.\n  Contact your local sales representative for assistance. This circuit is distributed to customers only for use with LTC parts.\n  Copyright © 2012 Linear Technology Inc. All rights reserved.
