Version 4
SHEET 1 2020 764
WIRE -64 64 -160 64
WIRE 16 64 -64 64
WIRE 32 64 16 64
WIRE 320 64 288 64
WIRE 432 64 320 64
WIRE 544 64 432 64
WIRE 624 64 544 64
WIRE -160 80 -160 64
WIRE -64 80 -64 64
WIRE 320 80 320 64
WIRE 432 80 432 64
WIRE 544 80 544 64
WIRE 624 80 624 64
WIRE -160 176 -160 160
WIRE -64 176 -64 144
WIRE 16 176 16 64
WIRE 32 176 16 176
WIRE 320 176 320 144
WIRE 320 176 288 176
WIRE 432 176 432 160
WIRE 432 176 320 176
WIRE 544 176 544 144
WIRE 624 176 624 160
WIRE 432 192 432 176
WIRE 32 288 16 288
WIRE 432 288 432 272
FLAG -160 176 0
FLAG -160 64 IN
FLAG -64 176 0
FLAG 16 288 0
FLAG 432 288 0
FLAG 544 176 0
FLAG 624 64 OUT
FLAG 624 176 0
FLAG 352 288 0
SYMBOL voltage -160 64 R0
WINDOW 123 0 0 Left 0
WINDOW 39 0 0 Left 0
SYMATTR InstName V1
SYMATTR Value 45
SYMBOL cap -80 80 R0
SYMATTR InstName C1
SYMATTR Value 10µ
SYMBOL res 416 176 R0
SYMATTR InstName R1
SYMATTR Value 124K
SYMBOL res 416 64 R0
SYMATTR InstName R2
SYMATTR Value 909K
SYMBOL cap 528 80 R0
SYMATTR InstName C2
SYMATTR Value 2.2µ
SYMBOL res 608 64 R0
SYMATTR InstName Rload
SYMATTR Value 50
SYMBOL PowerProducts\\LT3060 160 176 R0
SYMATTR InstName U1
SYMBOL cap 288 304 R270
WINDOW 0 32 32 VTop 0
WINDOW 3 0 32 VBottom 0
SYMATTR InstName C3
SYMATTR Value .01µ
SYMBOL cap 304 80 R0
WINDOW 3 20 61 Left 0
SYMATTR Value .01µ
SYMATTR InstName C4
TEXT -400 336 Left 0 ;Note:\n  If the simulation model is not found please update with the "Sync Release" command from the "Tools" menu.\n  It remains the customer's responsibility to verify proper and reliable operation in the actual application.\n  Component substitution and printed circuit board layout may significantly affect circuit performance or reliability.\n  Contact your local sales representative for assistance. This circuit is distributed to customers only for use with LTC parts.\n  Copyright © 2011 Linear Technology Inc. All rights reserved.
TEXT 224 8 Bottom 0 ;LT3060 - 45V Vin, µPower, Low Noise, 100mA Low Dropout, Linear Regulator\nInput: 45V       Output: 5V @ 100mA
TEXT 480 312 Left 0 !.tran 500m startup
