Version 4
SHEET 1 3900 1516
WIRE 2656 1024 2560 1024
WIRE 2768 1024 2656 1024
WIRE 3120 1024 3056 1024
WIRE 3232 1024 3120 1024
WIRE 3312 1024 3232 1024
WIRE 2560 1040 2560 1024
WIRE 3120 1040 3120 1024
WIRE 3232 1040 3232 1024
WIRE 3312 1040 3312 1024
WIRE 2656 1056 2656 1024
WIRE 3072 1120 3056 1120
WIRE 3072 1136 3072 1120
WIRE 3120 1136 3120 1120
WIRE 3120 1136 3072 1136
WIRE 3232 1136 3232 1104
WIRE 3312 1136 3312 1120
WIRE 2560 1152 2560 1120
WIRE 2656 1152 2656 1120
WIRE 3120 1152 3120 1136
WIRE 2912 1200 2912 1184
WIRE 3120 1248 3120 1232
FLAG 2560 1152 0
FLAG 2912 1200 0
FLAG 3120 1248 0
FLAG 3232 1136 0
FLAG 3312 1136 0
FLAG 3312 1024 OUT
FLAG 2656 1152 0
FLAG 2560 1024 IN
SYMBOL VOLTAGE 2560 1024 R0
WINDOW 0 34 44 Left 0
WINDOW 3 29 98 Left 0
WINDOW 123 0 0 Left 0
WINDOW 39 0 0 Left 0
SYMATTR InstName V1
SYMATTR Value 12
SYMBOL RES 3104 1024 R0
SYMATTR InstName R1
SYMATTR Value 750K
SYMBOL res 3104 1248 M180
WINDOW 0 36 76 Left 0
WINDOW 3 36 40 Left 0
SYMATTR InstName R2
SYMATTR Value 249K
SYMBOL cap 3216 1040 R0
SYMATTR InstName C2
SYMATTR Value 3.3µ
SYMATTR SpiceLine Rser=5m
SYMBOL cap 2640 1056 R0
SYMATTR InstName C4
SYMATTR Value 1µ
SYMATTR SpiceLine Rser=5m
SYMBOL res 3296 1024 R0
SYMATTR InstName Rload
SYMATTR Value 20
SYMBOL PowerProducts\\LT3012B 2912 1056 R0
SYMATTR InstName U2
TEXT 3240 1240 Left 0 !.tran 10m startup
TEXT 2448 1272 Left 0 ;Note:\n  If the simulation model is not found please update with the "Sync Release" command from the "Tools" menu.\n  It remains the customer's responsibility to verify proper and reliable operation in the actual application.\n  Component substitution and printed circuit board layout may significantly affect circuit performance or reliability\n  Contact your local sales representative for assistance. This circuit is distributed to customers only for use with LTC parts\n  Copyright © 2007 Linear Technology Inc. All rights reserved.
TEXT 3024 960 Bottom 0 ;LT3012B - 250mA, 4V to 80V Low Dropout µPower Linear Regulator\nInput: 24V       Output: 5V @ 250mA
