Version 4
SHEET 1 1256 680
WIRE 0 160 -208 160
WIRE 16 160 0 160
WIRE 352 160 304 160
WIRE 416 160 352 160
WIRE 512 160 416 160
WIRE -208 176 -208 160
WIRE 416 176 416 160
WIRE 512 176 512 160
WIRE 0 256 0 160
WIRE 16 256 0 256
WIRE 352 256 352 160
WIRE 352 256 304 256
WIRE -208 272 -208 256
WIRE 416 272 416 240
WIRE 512 272 512 256
WIRE 160 336 160 320
FLAG 160 336 0
FLAG 416 272 0
FLAG 512 272 0
FLAG -208 272 0
FLAG 512 160 OUT
SYMBOL voltage -208 160 R0
SYMATTR InstName V1
SYMATTR Value PWL(0 0 1 10)
SYMBOL res 496 160 R0
SYMATTR InstName Rload
SYMATTR Value 3
SYMBOL cap 400 176 R0
SYMATTR InstName C1
SYMATTR Value 3.3µ
SYMBOL PowerProducts\\LT3021-1.5 160 192 R0
SYMATTR InstName U1
TEXT 400 320 Left 2 !.tran 1
TEXT 160 104 Bottom 2 ;LT3021-1.5 - 500mA, Low Voltage, Very Low Dropout Linear Regulator\nLow Voltage µP/µC VLDO Regulator\nInput: 1.7V to 10V     Output: 1.5V @ 500mA
TEXT -440 344 Left 2 ;Note:\n  If the simulation model is not found please update with the "Sync Release" command from the "Tools" menu.\n  It remains the customer's responsibility to verify proper and reliable operation in the actual application.\n  Component substitution and printed circuit board layout may significantly affect circuit performance or reliability.\n  Contact your local sales representative for assistance. This circuit is distributed to customers only for use with LTC parts.\n  Copyright © 2012 Linear Technology Inc. All rights reserved.
