Version 4
SHEET 1 1164 680
WIRE -96 48 -208 48
WIRE 0 48 -96 48
WIRE 32 48 0 48
WIRE 400 48 320 48
WIRE 528 48 400 48
WIRE 624 48 528 48
WIRE -208 64 -208 48
WIRE 400 64 400 48
WIRE 528 64 528 48
WIRE 624 64 624 48
WIRE -96 80 -96 48
WIRE 0 144 0 48
WIRE 32 144 0 144
WIRE 400 144 320 144
WIRE -208 160 -208 144
WIRE -96 160 -96 144
WIRE 400 160 400 144
WIRE 528 160 528 128
WIRE 624 160 624 144
WIRE 176 240 176 208
WIRE 400 256 400 240
FLAG -208 160 0
FLAG 528 160 0
FLAG 624 160 0
FLAG 176 240 0
FLAG -208 48 IN
FLAG 624 48 OUT
FLAG -96 160 0
FLAG 400 256 0
SYMBOL voltage -208 48 R0
WINDOW 123 0 0 Left 0
WINDOW 39 0 0 Left 0
SYMATTR InstName V1
SYMATTR Value 20
SYMBOL cap 512 64 R0
SYMATTR InstName C1
SYMATTR Value 1µ
SYMBOL res 608 48 R0
SYMATTR InstName Rload
SYMATTR Value 165
SYMBOL PowerProducts\\LT3009 176 96 R0
SYMATTR InstName U1
SYMBOL res 384 48 R0
SYMATTR InstName R1
SYMATTR Value 2.8Meg
SYMBOL res 384 144 R0
SYMATTR InstName R2
SYMATTR Value 619K
SYMBOL cap -112 80 R0
SYMATTR InstName C2
SYMATTR Value 1µ
TEXT 552 232 Left 0 !.tran 10m startup
TEXT 160 -40 Bottom 0 ;LT3009 - 3µA IQ, 20mA Low Dropout Linear Regulator \nInput: 20V       Output: 3.3V @ 20mA
TEXT -376 264 Left 0 ;Note:\n  If the simulation model is not found please update with the "Sync Release" command from the "Tools" menu.\n  It remains the customer's responsibility to verify proper and reliable operation in the actual application.\n  Component substitution and printed circuit board layout may significantly affect circuit performance or reliability.\n  Contact your local sales representative for assistance. This circuit is distributed to customers only for use with LTC parts.\n  Copyright © 2009 Linear Technology Inc. All rights reserved.
