Version 4
SHEET 1 1172 836
WIRE 0 -64 -128 -64
WIRE 80 -64 0 -64
WIRE 96 -64 80 -64
WIRE 384 -64 352 -64
WIRE 496 -64 384 -64
WIRE 624 -64 496 -64
WIRE 704 -64 624 -64
WIRE -128 -48 -128 -64
WIRE 0 -48 0 -64
WIRE 384 -48 384 -64
WIRE 496 -48 496 -64
WIRE 624 -48 624 -64
WIRE 704 -48 704 -64
WIRE 384 32 384 16
WIRE 384 32 352 32
WIRE -128 48 -128 32
WIRE 0 48 0 16
WIRE 496 48 496 32
WIRE 496 48 432 48
WIRE 624 48 624 16
WIRE 704 48 704 32
WIRE 496 64 496 48
WIRE 80 128 80 -64
WIRE 96 128 80 128
WIRE 432 128 432 48
WIRE 432 128 352 128
WIRE 496 160 496 144
WIRE 368 224 352 224
WIRE 496 304 496 288
WIRE 96 320 80 320
WIRE 432 320 352 320
WIRE 432 400 432 320
WIRE 496 400 496 384
WIRE 496 400 432 400
WIRE -128 416 -128 400
WIRE 0 416 0 400
WIRE 384 416 352 416
WIRE 496 416 496 400
WIRE 704 416 704 400
WIRE 384 432 384 416
WIRE 624 432 624 400
WIRE -128 512 -128 496
WIRE 0 512 0 480
WIRE 0 512 -128 512
WIRE 80 512 80 320
WIRE 80 512 0 512
WIRE 96 512 80 512
WIRE 384 512 384 496
WIRE 384 512 352 512
WIRE 496 512 496 496
WIRE 496 512 384 512
WIRE 624 512 624 496
WIRE 624 512 496 512
WIRE 704 512 704 496
WIRE 704 512 624 512
FLAG 368 224 0
FLAG -128 400 0
FLAG -128 48 0
FLAG 624 48 0
FLAG 496 160 0
FLAG 624 400 0
FLAG 496 288 0
FLAG 704 48 0
FLAG 704 400 0
FLAG -128 -64 INP
FLAG -128 512 INN
FLAG 704 -64 OUTP
FLAG 704 512 OUTN
FLAG 0 48 0
FLAG 0 400 0
SYMBOL PowerProducts\\LT3032 224 224 R0
SYMATTR InstName U1
SYMBOL cap 608 -48 R0
SYMATTR InstName C1
SYMATTR Value 10µ
SYMBOL res 480 -64 R0
SYMATTR InstName R1
SYMATTR Value 150K
SYMBOL res 480 48 R0
SYMATTR InstName R2
SYMATTR Value 88.7K
SYMBOL voltage -128 -64 R0
WINDOW 123 24 146 Left 0
WINDOW 39 24 125 Left 0
SYMATTR InstName V2
SYMATTR Value 5
SYMBOL cap 608 496 M180
WINDOW 0 24 64 Left 0
WINDOW 3 24 8 Left 0
SYMATTR InstName C2
SYMATTR Value 10µ
SYMBOL res 480 512 M180
WINDOW 0 36 76 Left 0
WINDOW 3 36 40 Left 0
SYMATTR InstName R3
SYMATTR Value 150K
SYMBOL res 480 400 M180
WINDOW 0 36 76 Left 0
WINDOW 3 36 40 Left 0
SYMATTR InstName R4
SYMATTR Value 88.7K
SYMBOL res 688 -64 R0
SYMATTR InstName RloadP
SYMATTR Value 22
SYMBOL res 688 512 M180
WINDOW 0 36 76 Left 0
WINDOW 3 36 40 Left 0
SYMATTR InstName RloadN
SYMATTR Value 22
SYMBOL cap -16 -48 R0
SYMATTR InstName C3
SYMATTR Value 2.2µ
SYMBOL cap -16 416 R0
SYMATTR InstName C4
SYMATTR Value 2.2µ
SYMBOL cap 368 -48 R0
SYMATTR InstName C5
SYMATTR Value 0.01µ
SYMBOL cap 368 432 R0
SYMATTR InstName C6
SYMATTR Value 0.01µ
SYMBOL voltage -128 512 M180
WINDOW 0 24 104 Left 0
WINDOW 3 24 16 Left 0
WINDOW 123 24 -26 Left 0
WINDOW 39 24 -5 Left 0
SYMATTR InstName V1
SYMATTR Value -5
TEXT 800 536 Left 0 !.tran 50m startup
TEXT 240 -112 Bottom 0 ;LT3032 - Dual 150mA Positive/Negative Low Noise Low Dropout Linear Regulator\nInputP: 5V     OutputP: 3.3V @ 0.15A \nInputN: -5V    OutputN: -3.3V @ 0.15A
TEXT -288 576 Left 0 ;Note:\n  If the simulation model is not found please update with the "Sync Release" command from the "Tools" menu.\n  It remains the customer's responsibility to verify proper and reliable operation in the actual application.\n  Component substitution and printed circuit board layout may significantly affect circuit performance or reliability.\n  Contact your local sales representative for assistance. This circuit is distributed to customers only for use with LTC parts.\n  Copyright © 2011 Linear Technology Inc. All rights reserved.
