Version 4
SHEET 1 1536 732
WIRE 176 16 80 16
WIRE 256 16 176 16
WIRE 624 16 544 16
WIRE 768 16 624 16
WIRE 880 16 768 16
WIRE 80 32 80 16
WIRE 176 32 176 16
WIRE 768 32 768 16
WIRE 880 32 880 16
WIRE 624 112 624 96
WIRE 624 112 544 112
WIRE 80 128 80 112
WIRE 176 128 176 96
WIRE 624 128 624 112
WIRE 768 128 768 96
WIRE 880 128 880 112
WIRE 400 192 400 176
WIRE 624 224 624 208
FLAG 80 128 0
FLAG 400 192 0
FLAG 880 128 0
FLAG 768 128 0
FLAG 880 16 OUT
FLAG 80 16 IN
FLAG 176 128 0
FLAG 624 224 0
SYMBOL voltage 80 16 R0
SYMATTR InstName V1
SYMATTR Value 12
SYMBOL res 608 0 R0
SYMATTR InstName R1
SYMATTR Value 3.92Meg
SYMBOL res 608 112 R0
SYMATTR InstName R2
SYMATTR Value 1.27Meg
SYMBOL cap 752 32 R0
SYMATTR InstName C1
SYMATTR Value 0.47µ
SYMBOL cap 160 32 R0
SYMATTR InstName C2
SYMATTR Value 1µ
SYMBOL PowerProducts\\LT3014B 400 48 R0
SYMATTR InstName U1
SYMBOL res 864 16 R0
SYMATTR InstName Rload
SYMATTR Value 250
TEXT 768 216 Left 2 !.tran .03 startup
TEXT 480 -40 Bottom 2 ;LT3014B - 20mA, 3V to 80V Low Dropout µPower Linear Regulator\nAutomotive 5V Supply\nInput: 5.4V to 80V       Output: 5V @ 20mA
TEXT -144 232 Left 2 ;Note:\n  If the simulation model is not found please update with the "Sync Release" command from the "Tools" menu.\n  It remains the customer's responsibility to verify proper and reliable operation in the actual application.\n  Component substitution and printed circuit board layout may significantly affect circuit performance or reliability.\n  Contact your local sales representative for assistance. This circuit is distributed to customers only for use with LTC parts.\n  Copyright © 2013 Linear Technology Inc. All rights reserved.
