Version 4
SHEET 1 1076 756
WIRE -64 80 -160 80
WIRE 16 80 -64 80
WIRE 176 80 16 80
WIRE -160 96 -160 80
WIRE -64 96 -64 80
WIRE 176 112 176 80
WIRE -160 192 -160 176
WIRE -64 192 -64 160
WIRE 16 224 16 80
WIRE 48 224 16 224
WIRE 368 224 304 224
WIRE 464 224 368 224
WIRE 368 240 368 224
WIRE 464 240 464 224
WIRE 368 336 368 304
WIRE 464 336 464 320
WIRE 176 352 176 336
WIRE 176 448 176 432
FLAG 176 448 0
FLAG -160 192 0
FLAG 464 336 0
FLAG 368 336 0
FLAG -64 192 0
FLAG 464 224 OUT
FLAG -160 80 IN
SYMBOL cap 352 240 R0
SYMATTR InstName C1
SYMATTR Value 10µ
SYMBOL cap -80 96 R0
SYMATTR InstName C2
SYMATTR Value 10µ
SYMBOL res 448 224 R0
SYMATTR InstName Rload
SYMATTR Value 2
SYMBOL voltage -160 80 R0
WINDOW 123 0 0 Left 0
WINDOW 39 0 0 Left 0
SYMATTR InstName V1
SYMATTR Value 10
SYMBOL PowerProducts\\LT3083 176 224 R0
SYMATTR InstName U2
SYMBOL res 160 336 R0
SYMATTR InstName R1
SYMATTR Value 120K
TEXT 368 424 Left 0 !.tran 50u startup
TEXT 192 72 Bottom 0 ;LT3083 - Adjustable 3A Single Resistor Low Dropout Regulator\nInput: 10V       Output: 6.0V @ 3A
TEXT -400 456 Left 0 ;Note:\n  If the simulation model is not found please update with the "Sync Release" command from the "Tools" menu.\n  It remains the customer's responsibility to verify proper and reliable operation in the actual application.\n  Component substitution and printed circuit board layout may significantly affect circuit performance or reliability.\n  Contact your local sales representative for assistance. This circuit is distributed to customers only for use with LTC parts.\n  Copyright © 2011 Linear Technology Inc. All rights reserved.
