Version 4
SHEET 1 1164 1020
WIRE -80 112 -224 112
WIRE 16 112 -80 112
WIRE 176 112 16 112
WIRE -224 128 -224 112
WIRE -80 128 -80 112
WIRE 176 144 176 112
WIRE -224 224 -224 208
WIRE -80 224 -80 192
WIRE 16 256 16 112
WIRE 48 256 16 256
WIRE 336 256 304 256
WIRE 176 384 176 368
WIRE 176 384 -16 384
WIRE 336 384 336 256
WIRE 416 384 336 384
WIRE 512 384 416 384
WIRE 16 400 16 256
WIRE 176 400 16 400
WIRE 512 400 512 384
WIRE 176 416 176 400
WIRE 416 416 416 384
WIRE 416 512 416 480
WIRE 512 512 512 480
WIRE 16 528 16 400
WIRE 48 528 16 528
WIRE 336 528 336 384
WIRE 336 528 304 528
WIRE -16 656 -16 384
WIRE 176 656 176 640
WIRE 176 656 -16 656
WIRE 176 672 176 656
WIRE 176 768 176 752
FLAG 176 768 0
FLAG -224 224 0
FLAG 512 512 0
FLAG 416 512 0
FLAG -80 224 0
FLAG 512 384 OUT
FLAG -224 112 IN
SYMBOL res 160 656 R0
SYMATTR InstName R1
SYMATTR Value 250K
SYMBOL cap 400 416 R0
SYMATTR InstName C1
SYMATTR Value 10µ
SYMBOL cap -96 128 R0
SYMATTR InstName C2
SYMATTR Value 1µ
SYMBOL res 496 384 R0
SYMATTR InstName Rload
SYMATTR Value 2.5
SYMBOL voltage -224 112 R0
WINDOW 123 0 0 Left 0
WINDOW 39 0 0 Left 0
SYMATTR InstName V1
SYMATTR Value 7
SYMBOL PowerProducts\\LT3080-1 176 256 R0
SYMATTR InstName U1
SYMBOL PowerProducts\\LT3080-1 176 528 R0
SYMATTR InstName U2
TEXT 376 696 Left 0 !.tran 50u startup
TEXT 176 88 Bottom 0 ;LT3080-1 - Parallelable 1.1A Single Resistor Low Dropout Regulator\nInput: 7V       Output: 5.0V @ 2A
TEXT -432 784 Left 0 ;Note:\n  If the simulation model is not found please update with the "Sync Release" command from the "Tools" menu.\n  It remains the customer's responsibility to verify proper and reliable operation in the actual application.\n  Component substitution and printed circuit board layout may significantly affect circuit performance or reliability.\n  Contact your local sales representative for assistance. This circuit is distributed to customers only for use with LTC parts.\n  Copyright © 2009 Linear Technology Inc. All rights reserved.
