Version 4
SHEET 1 1976 1156
WIRE 448 576 336 576
WIRE 544 576 448 576
WIRE 736 576 544 576
WIRE 896 576 736 576
WIRE 336 592 336 576
WIRE 448 592 448 576
WIRE 736 624 736 576
WIRE 1024 624 928 624
WIRE 1184 624 1088 624
WIRE 1312 624 1248 624
WIRE 1392 624 1312 624
WIRE 1488 624 1392 624
WIRE 1024 640 1024 624
WIRE 1088 640 1088 624
WIRE 1488 640 1488 624
WIRE 1392 656 1392 624
WIRE 336 688 336 672
WIRE 448 688 448 656
WIRE 544 704 544 576
WIRE 592 704 544 704
WIRE 928 704 928 624
WIRE 928 704 880 704
WIRE 896 736 896 576
WIRE 1024 736 1024 720
WIRE 1024 736 896 736
WIRE 1088 736 1088 720
WIRE 1120 736 1088 736
WIRE 1392 736 1392 720
WIRE 1488 736 1488 720
WIRE 1024 752 1024 736
WIRE 1088 752 1088 736
WIRE 512 784 480 784
WIRE 592 784 576 784
WIRE 928 784 880 784
WIRE 928 848 928 784
WIRE 1024 848 1024 832
WIRE 1024 848 928 848
WIRE 1088 848 1088 832
WIRE 1184 848 1088 848
WIRE 1312 848 1312 624
WIRE 1312 848 1248 848
WIRE 448 864 400 864
WIRE 592 864 528 864
WIRE 912 864 880 864
WIRE 912 880 912 864
WIRE 672 960 672 944
WIRE 800 960 800 944
WIRE 912 976 912 960
FLAG 1488 624 OUT
FLAG 1120 736 0
FLAG 1488 736 0
FLAG 336 688 0
FLAG 480 784 0
FLAG 400 864 0
FLAG 672 960 0
FLAG 912 976 0
FLAG 800 960 0
FLAG 336 576 IN
FLAG 1392 736 0
FLAG 448 688 0
SYMBOL IND2 1104 848 R180
WINDOW 0 -2 74 Right 2
WINDOW 3 -2 39 Right 2
SYMATTR InstName L1
SYMATTR Value 500µ
SYMBOL IND2 1008 848 M180
WINDOW 0 -25 80 Left 2
WINDOW 3 -50 40 Left 2
SYMATTR InstName L2
SYMATTR Value 500µ
SYMBOL IND2 1104 736 R180
WINDOW 0 -3 76 Right 2
WINDOW 3 -2 42 Right 2
SYMATTR InstName L3
SYMATTR Value 500µ
SYMBOL IND2 1008 736 M180
WINDOW 0 -27 80 Left 2
WINDOW 3 -50 37 Left 2
SYMATTR InstName L4
SYMATTR Value 500µ
SYMBOL schottky 1184 864 R270
WINDOW 0 32 32 VTop 2
WINDOW 3 0 32 VBottom 2
SYMATTR InstName D1
SYMATTR Value MBRS140
SYMBOL schottky 1184 640 R270
WINDOW 0 32 32 VTop 2
WINDOW 3 0 32 VBottom 2
SYMATTR InstName D2
SYMATTR Value MBRS140
SYMBOL RES 544 848 R90
WINDOW 0 0 56 VBottom 2
WINDOW 3 32 56 VTop 2
SYMATTR InstName R1
SYMATTR Value 16.9K
SYMBOL RES 896 864 R0
SYMATTR InstName R2
SYMATTR Value 34K
SYMBOL CAP 512 800 R270
WINDOW 0 32 32 VTop 2
WINDOW 3 0 32 VBottom 2
SYMATTR InstName C1
SYMATTR Value 680p
SYMBOL VOLTAGE 336 576 R0
WINDOW 123 0 0 Left 2
WINDOW 39 24 124 Left 2
SYMATTR InstName V1
SYMATTR Value 5
SYMBOL POWERPRODUCTS\\LT3439 736 784 R0
SYMATTR InstName U1
SYMBOL RES 1472 624 R0
SYMATTR InstName Rload
SYMATTR Value 10
SYMBOL cap 432 592 R0
SYMATTR InstName C2
SYMATTR Value 22µ
SYMBOL cap 1376 656 R0
SYMATTR InstName C3
SYMATTR Value 47µ
TEXT 1064 944 Left 2 !.tran 1.2m startup
TEXT 960 600 Left 2 !K1 L1 L2 L3 L4 1
TEXT 1048 560 Bottom 2 ;LT3439 - Slew Rate Controlled Ultralow Noise 1A Isolated DC/DC Transformer Driver\nLow Noise 5V to 5V Push-Pull DC/DC Transformer\nInput: 5V     Output: 5V @ 500mA
TEXT 312 984 Left 2 ;Note:\n  If the simulation model is not found please update with the "Sync Release" command from the "Tools" menu.\n  It remains the customer's responsibility to verify proper and reliable operation in the actual application.\n  Component substitution and printed circuit board layout may significantly affect circuit performance or reliability.\n  Contact your local sales representative for assistance. This circuit is distributed to customers only for use with LTC parts.\n  Copyright © 2013 Linear Technology Inc. All rights reserved.
