Version 4
SHEET 1 3192 1876
WIRE 1616 1056 1536 1056
WIRE 1808 1056 1616 1056
WIRE 2064 1056 1808 1056
WIRE 2224 1056 2112 1056
WIRE 2384 1056 2288 1056
WIRE 1536 1072 1536 1056
WIRE 2064 1072 2064 1056
WIRE 2112 1072 2112 1056
WIRE 2384 1072 2384 1056
WIRE 1536 1168 1536 1152
WIRE 2384 1168 2384 1136
WIRE 1968 1184 1936 1184
WIRE 2064 1184 2064 1152
WIRE 2064 1184 2048 1184
WIRE 1808 1232 1808 1056
WIRE 1936 1232 1936 1184
WIRE 1616 1312 1616 1056
WIRE 1728 1312 1616 1312
WIRE 2064 1312 2064 1184
WIRE 2064 1312 2016 1312
WIRE 1616 1392 1616 1312
WIRE 1632 1392 1616 1392
WIRE 1728 1392 1712 1392
WIRE 2112 1392 2112 1152
WIRE 2112 1392 2016 1392
WIRE 1728 1472 1536 1472
WIRE 2032 1472 2016 1472
WIRE 2128 1472 2112 1472
WIRE 1536 1488 1536 1472
WIRE 1808 1568 1808 1552
WIRE 1936 1568 1936 1552
WIRE 1536 1584 1536 1568
WIRE 1808 1648 1808 1632
FLAG 2384 1168 0
FLAG 2128 1472 0
FLAG 1936 1568 0
FLAG 1808 1648 0
FLAG 1536 1168 0
FLAG 1536 1056 IN
FLAG 2384 1056 OUT
FLAG 1536 1584 0
SYMBOL POWERPRODUCTS\\LT3420 1872 1392 R0
WINDOW 0 -16 -180 Left 2
SYMATTR InstName U1
SYMBOL ind2 2048 1056 R0
WINDOW 0 -6 35 Right 2
WINDOW 3 -4 65 Right 2
SYMATTR InstName L1
SYMATTR Value 22µ
SYMATTR SpiceLine Rser=.11 Rpar=2K
SYMBOL ind2 2128 1168 R180
WINDOW 0 -6 74 Right 2
WINDOW 3 -4 44 Right 2
SYMATTR InstName L2
SYMATTR Value {22µ*12.1**2}
SYMATTR SpiceLine Rser=27.5 Rpar=1Meg
SYMBOL RES 2064 1168 R90
WINDOW 0 0 56 VBottom 2
WINDOW 3 32 56 VTop 2
SYMATTR InstName R1
SYMATTR Value 51.1K
SYMBOL res 2016 1488 R270
WINDOW 0 32 56 VTop 2
WINDOW 3 0 56 VBottom 2
SYMATTR InstName R2
SYMATTR Value 2K
SYMBOL cap 1792 1568 R0
SYMATTR InstName C1
SYMATTR Value 470p
SYMBOL res 1728 1376 R90
WINDOW 0 0 56 VBottom 2
WINDOW 3 32 56 VTop 2
SYMATTR InstName R3
SYMATTR Value 100K
SYMBOL VOLTAGE 1536 1056 R0
SYMATTR InstName V1
SYMATTR Value 5
SYMBOL voltage 1536 1472 R0
WINDOW 123 24 138 Left 2
WINDOW 39 24 117 Left 2
SYMATTR InstName V2
SYMATTR Value PULSE(0 5 0.1m)
SYMBOL diode 2224 1072 R270
WINDOW 0 32 32 VTop 2
WINDOW 3 0 32 VBottom 2
SYMATTR InstName D1
SYMATTR Value GSD2004W-V
SYMBOL cap 2368 1072 R0
SYMATTR InstName Cload
SYMATTR Value .1µ
SYMATTR SpiceLine Rpar=.1Meg
TEXT 2168 1544 Left 2 !.tran 5m startup
TEXT 2080 1048 Bottom 2 !K1 L1 L2 1
TEXT 1984 1000 Bottom 2 ;LT3420 - Photoflash Capacitor Chargers with Automatic Refresh\nHigh Charge Rate Strobe Capacitor Charger\nInput: 2.5V to 6V     Output: 320V
TEXT 1312 1664 Left 2 ;Note:\n  DANGER HIGH VOLTAGE OPERATION BY HIGH VOLTAGE TRAINED PERSONNEL ONLY\n  Scale charge time by the Cload capacitance. For simulation, a .1uF capacitor is used to reduce simulation time.\n  If the simulation model is not found please update with the "Sync Release" command from the "Tools" menu.\n  It remains the customer's responsibility to verify proper and reliable operation in the actual application.\n  Component substitution and printed circuit board layout may significantly affect circuit performance or reliability.\n  Contact your local sales representative for assistance. This circuit is distributed to customers only for use with LTC parts.\n  Copyright © 2017 Linear Technology Inc. All rights reserved.
