Version 4
SHEET 1 1792 724
WIRE 160 -176 32 -176
WIRE 368 -176 224 -176
WIRE 560 -176 368 -176
WIRE 368 -160 368 -176
WIRE 560 -160 560 -176
WIRE 32 -64 32 -176
WIRE 48 -64 32 -64
WIRE 144 -64 128 -64
WIRE 240 -64 144 -64
WIRE 416 -64 336 -64
WIRE 560 -64 560 -96
WIRE 560 -64 416 -64
WIRE 704 -64 560 -64
WIRE 784 -64 704 -64
WIRE 784 -48 784 -64
WIRE 416 -32 416 -64
WIRE 704 -32 704 -64
WIRE 560 -16 560 -64
WIRE 32 16 32 -64
WIRE 144 16 144 -64
WIRE 256 16 256 -16
WIRE 704 64 704 32
WIRE 784 64 784 32
WIRE -176 80 -256 80
WIRE -64 80 -176 80
WIRE -32 80 -64 80
WIRE 368 80 368 -96
WIRE 368 80 320 80
WIRE 416 80 416 48
WIRE 416 80 368 80
WIRE -256 96 -256 80
WIRE -176 112 -176 80
WIRE -64 144 -64 80
WIRE -32 144 -64 144
WIRE 560 144 560 64
WIRE 560 144 320 144
WIRE 560 160 560 144
WIRE -256 192 -256 176
WIRE -176 192 -176 176
WIRE -64 208 -144 208
WIRE -32 208 -64 208
WIRE 336 208 320 208
WIRE 432 208 416 208
WIRE 512 208 496 208
WIRE -144 224 -144 208
WIRE 560 256 560 240
WIRE -64 272 -64 208
WIRE -32 272 -64 272
WIRE -144 320 -144 288
WIRE -64 336 -64 272
WIRE -32 336 -64 336
WIRE 368 336 320 336
WIRE 368 352 368 336
WIRE 144 400 144 384
WIRE 368 448 368 432
FLAG 144 400 0
FLAG 784 64 0
FLAG -256 192 0
FLAG 368 448 0
FLAG -144 320 0
FLAG 704 64 0
FLAG -176 192 0
FLAG 560 256 0
FLAG 512 208 0
SYMBOL PowerProducts\\LT3496 144 208 R0
SYMATTR InstName U1
SYMBOL res 32 -48 R270
WINDOW 0 32 56 VTop 0
WINDOW 3 0 56 VBottom 0
SYMATTR InstName R1
SYMATTR Value 0.5
SYMBOL ind 400 -48 R0
SYMATTR InstName L1
SYMATTR Value 15µ
SYMATTR SpiceLine Ipk=1.72 Rser=0.07 Rpar=0 Cpar=0
SYMBOL schottky 352 -96 M180
WINDOW 0 42 52 Left 0
WINDOW 3 19 0 Left 0
SYMATTR InstName D1
SYMATTR Value PMEG6010AED
SYMATTR Description Diode
SYMATTR Type diode
SYMBOL cap 432 192 M90
WINDOW 0 0 32 VBottom 0
WINDOW 3 32 32 VTop 0
SYMATTR InstName C1
SYMATTR Value 1000p
SYMBOL voltage 784 -64 R0
WINDOW 123 0 0 Left 0
WINDOW 39 0 0 Left 0
SYMATTR InstName V1
SYMATTR Value 12
SYMBOL voltage -256 80 R0
SYMATTR InstName V2
SYMATTR Value 5
SYMBOL voltage 368 336 R0
WINDOW 123 0 0 Left 0
WINDOW 39 0 0 Left 0
SYMATTR InstName V3
SYMATTR Value PULSE(5 0 0.6m 1u 1u 900u 1m)
SYMBOL cap -160 224 R0
SYMATTR InstName C2
SYMATTR Value .1µ
SYMBOL LED 224 -192 R90
WINDOW 0 0 32 VBottom 0
WINDOW 3 72 40 VTop 0
WINDOW 123 21 -23 VTop 0
SYMATTR InstName D2-D5
SYMATTR Value LXHL-BW02
SYMATTR Value2 N=4
SYMATTR Description Diode
SYMATTR Type diode
SYMBOL cap 688 -32 R0
SYMATTR InstName C3
SYMATTR Value 1µ
SYMBOL cap -192 112 R0
SYMATTR InstName C4
SYMATTR Value 1µ
SYMBOL pmos 336 -16 M270
WINDOW 0 59 45 VTop 0
WINDOW 3 -11 75 VLeft 0
SYMATTR InstName Q1
SYMATTR Value FDS4685
SYMBOL res 544 -32 R0
WINDOW 3 41 71 Left 0
SYMATTR Value 7.15Meg
SYMATTR InstName R2
SYMBOL res 544 144 R0
SYMATTR InstName R3
SYMATTR Value 191K
SYMBOL cap 544 -160 R0
SYMATTR InstName C5
SYMATTR Value 2.2µ
SYMBOL res 320 224 R270
WINDOW 0 32 56 VTop 0
WINDOW 3 0 56 VBottom 0
SYMATTR InstName R4
SYMATTR Value 36K
TEXT 640 360 Left 0 !.tran 5m startup
TEXT 328 -232 Bottom 0 ;LT3496 - Triple Output LED Driver In Buck-Boost Mode\nInput: 12V       Output: 4 LEDs @ 200mA
TEXT -264 464 Left 0 ;Note:\n  If the simulation model is not found please update with the "Sync Release" command from the "Tools" menu.\n  It remains the customer's responsibility to verify proper and reliable operation in the actual application.\n  Component substitution and printed circuit board layout may significantly affect circuit performance or reliability.\n  Contact your local sales representative for assistance. This circuit is distributed to customers only for use with LTC parts.\n  Copyright © 2008 Linear Technology Inc. All rights reserved.
