Version 4
SHEET 1 5868 1960
WIRE 1280 1296 1280 1280
WIRE 1280 1392 1280 1376
WIRE 1392 1280 1280 1280
WIRE 1392 1312 1392 1280
WIRE 1392 1392 1392 1376
WIRE 1472 1280 1392 1280
WIRE 1472 1440 1472 1280
WIRE 1504 1440 1472 1440
WIRE 1568 1280 1472 1280
WIRE 1568 1296 1568 1280
WIRE 1632 1600 1632 1568
WIRE 1696 1296 1696 1280
WIRE 1776 1280 1696 1280
WIRE 1824 1440 1760 1440
WIRE 1824 1440 1824 1408
WIRE 1872 1280 1840 1280
WIRE 1872 1360 1760 1360
WIRE 1872 1360 1872 1280
WIRE 1888 1280 1872 1280
WIRE 1888 1408 1824 1408
WIRE 1888 1424 1888 1408
WIRE 1888 1520 1760 1520
WIRE 1888 1520 1888 1488
WIRE 1984 1280 1968 1280
WIRE 1984 1408 1888 1408
WIRE 1984 1408 1984 1280
WIRE 1984 1424 1984 1408
WIRE 1984 1520 1888 1520
WIRE 1984 1520 1984 1504
WIRE 1984 1536 1984 1520
WIRE 1984 1632 1984 1616
WIRE 2080 1280 1984 1280
WIRE 2080 1312 2080 1280
WIRE 2080 1424 2080 1376
WIRE 2192 1280 2080 1280
WIRE 2192 1312 2192 1280
WIRE 2192 1424 2192 1392
FLAG 1632 1600 0
FLAG 1280 1392 0
FLAG 2192 1424 0
FLAG 1392 1392 0
FLAG 1984 1632 0
FLAG 2080 1424 0
FLAG 2192 1280 OUT
FLAG 1280 1280 IN
SYMBOL VOLTAGE 1280 1280 R0
WINDOW 123 0 0 Left 0
WINDOW 39 24 132 Left 0
SYMATTR InstName V1
SYMATTR Value 12
SYMBOL CURRENT 2192 1312 R0
WINDOW 123 0 0 Left 0
WINDOW 39 35 104 Left 0
WINDOW 3 28 75 Left 0
SYMATTR SpiceLine load
SYMATTR Value 200m
SYMATTR InstName I1
SYMBOL PowerProducts\\LT3470 1632 1440 R0
SYMATTR InstName U1
SYMBOL cap 1376 1312 R0
SYMATTR InstName C1
SYMATTR Value 1µ
SYMBOL cap 1840 1264 R90
WINDOW 0 0 32 VBottom 0
WINDOW 3 32 32 VTop 0
SYMATTR InstName C2
SYMATTR Value 0.22µ
SYMBOL cap 1872 1424 R0
SYMATTR InstName C3
SYMATTR Value 22p
SYMBOL cap 2064 1312 R0
SYMATTR InstName C4
SYMATTR Value 22µ
SYMATTR SpiceLine Rser=.025
SYMBOL ind 1872 1296 R270
WINDOW 0 32 56 VTop 0
WINDOW 3 5 56 VBottom 0
SYMATTR InstName L1
SYMATTR Value 33µ
SYMATTR SpiceLine Rser=.1
SYMBOL res 1968 1408 R0
SYMATTR InstName R1
SYMATTR Value 604K
SYMBOL res 1968 1520 R0
SYMATTR InstName R2
SYMATTR Value 200K
TEXT 2174 1608 Left 0 !.tran 1.4m startup
TEXT 1768 1168 Center 0 ;LT3470 - 40V µPower Buck Regulator With Integrated Boost and Catch Diodes\nInput: 12V     Output: 5V @ 200mA
TEXT 1160 1632 Left 0 ;Note:\n  If the simulation model is not found please update with the "Sync Release" command from the "Tools" menu.\n  It remains the customer's responsibility to verify proper and reliable operation in the actual application.\n  Component substitution and printed circuit board layout may significantly affect circuit performance or reliability\n  Contact your local sales representative for assistance. This circuit is distributed to customers only for use with LTC parts\n  Copyright © 2006 Linear Technology Inc. All rights reserved.
