Version 4
SHEET 1 1132 688
WIRE -176 352 -176 336
WIRE -176 432 -176 416
WIRE -144 0 -144 -16
WIRE -144 96 -144 80
WIRE -128 336 -176 336
WIRE -64 272 -96 272
WIRE -48 -16 -144 -16
WIRE -48 0 -48 -16
WIRE -48 80 -48 64
WIRE -16 336 -48 336
WIRE -16 352 -16 336
WIRE -16 432 -16 416
WIRE 16 -16 -48 -16
WIRE 16 80 16 -16
WIRE 16 208 16 144
WIRE 32 80 16 80
WIRE 32 144 16 144
WIRE 32 208 16 208
WIRE 32 272 16 272
WIRE 32 336 -16 336
WIRE 112 -16 16 -16
WIRE 112 16 112 -16
WIRE 176 384 176 368
WIRE 240 16 240 -16
WIRE 336 144 320 144
WIRE 336 208 320 208
WIRE 336 208 336 144
WIRE 368 -16 240 -16
WIRE 368 0 368 -16
WIRE 368 80 320 80
WIRE 368 80 368 64
WIRE 368 96 368 80
WIRE 368 176 368 160
WIRE 400 336 320 336
WIRE 400 352 400 336
WIRE 400 432 400 416
WIRE 432 80 368 80
WIRE 544 80 512 80
WIRE 544 208 336 208
WIRE 544 208 544 80
WIRE 544 224 544 208
WIRE 544 304 544 288
FLAG -144 96 0
FLAG 544 304 0
FLAG 176 384 0
FLAG -16 432 0
FLAG -96 272 0
FLAG 368 176 0
FLAG 400 432 0
FLAG -48 80 0
FLAG -144 -16 IN
FLAG 544 80 OUT
FLAG -176 432 0
SYMBOL voltage -144 -16 R0
WINDOW 0 26 19 Left 0
WINDOW 3 24 99 Left 0
SYMATTR InstName V1
SYMATTR Value 12
SYMBOL ind 416 96 R270
WINDOW 0 32 56 VTop 0
WINDOW 3 5 56 VBottom 0
SYMATTR InstName L1
SYMATTR Value 10µ
SYMATTR SpiceLine Rser=.060
SYMBOL cap 352 0 R0
SYMATTR InstName C1
SYMATTR Value .22µ
SYMBOL PowerProducts\\LT3474 176 192 R0
SYMATTR InstName U1
SYMBOL cap -32 352 R0
SYMATTR InstName C2
SYMATTR Value 3300p
SYMBOL res 32 256 R90
WINDOW 0 0 56 VBottom 0
WINDOW 3 32 56 VTop 0
SYMATTR InstName R1
SYMATTR Value 80.6K
SYMBOL schottky 352 160 M180
WINDOW 0 37 59 Left 0
WINDOW 3 24 0 Left 0
SYMATTR InstName D1
SYMATTR Value 1N5819
SYMATTR Description Diode
SYMATTR Type diode
SYMBOL cap 528 224 R0
SYMATTR InstName C3
SYMATTR Value 2.2µ
SYMATTR SpiceLine Rser=.025
SYMBOL LED 384 352 R0
WINDOW 3 28 65 Left 0
SYMATTR Value LXHL-LW3C
SYMATTR InstName D2
SYMATTR Description Diode
SYMATTR Type diode
SYMBOL cap -64 0 R0
SYMATTR InstName C4
SYMATTR Value 2.2µ
SYMATTR SpiceLine Rser=.025
SYMBOL cap -192 352 R0
SYMATTR InstName C5
SYMATTR Value 0.1µ
SYMBOL res -32 320 R90
WINDOW 0 0 56 VBottom 0
WINDOW 3 32 56 VTop 0
SYMATTR InstName R2
SYMATTR Value 10K
TEXT 518 360 Left 0 !.tran 5m startup
TEXT -232 472 Left 0 !.model LXHL-LW3C D(Is=3.5e-17 Rs=0.725 N=3.12 Cjo=1.2n Iave=1.5 mfg=Lumileds type=LED)
TEXT 192 -32 Bottom 0 ;LT3474 - 1A, Wide Input Range Step-Down LED Driver DC/DC Converter\nInput: 12V       Output: 1A through single 3.6V LED
TEXT -344 480 Left 0 ;Note:\n  If the simulation model is not found please update with the "Sync Release" command from the "Tools" menu.\n  It remains the customer's responsibility to verify proper and reliable operation in the actual application.\n  Component substitution and printed circuit board layout may significantly affect circuit performance or reliability\n  Contact your local sales representative for assistance. This circuit is distributed to customers only for use with LTC parts\n  Copyright © 2006 Linear Technology Inc. All rights reserved.
