Version 4
SHEET 1 1800 1072
WIRE 352 -96 256 -96
WIRE 944 -96 352 -96
WIRE 1072 -96 944 -96
WIRE 256 -80 256 -96
WIRE 352 -80 352 -96
WIRE 944 -80 944 -96
WIRE 1072 -80 1072 -96
WIRE 528 -16 464 -16
WIRE 656 -16 592 -16
WIRE 784 -16 720 -16
WIRE 848 -16 784 -16
WIRE 1200 -16 1168 -16
WIRE 1264 -16 1200 -16
WIRE 1392 -16 1328 -16
WIRE 1504 -16 1456 -16
WIRE 784 0 784 -16
WIRE 1200 0 1200 -16
WIRE 256 16 256 0
WIRE 352 16 352 -16
WIRE 464 80 464 -16
WIRE 464 80 352 80
WIRE 560 80 464 80
WIRE 592 80 560 80
WIRE 720 80 672 80
WIRE 784 80 784 64
WIRE 784 80 720 80
WIRE 848 80 784 80
WIRE 1200 80 1200 64
WIRE 1200 80 1168 80
WIRE 1280 80 1200 80
WIRE 1392 80 1360 80
WIRE 1504 80 1504 -16
WIRE 1504 80 1392 80
WIRE 1600 80 1504 80
WIRE 464 96 464 80
WIRE 1504 96 1504 80
WIRE 352 128 352 80
WIRE 1600 128 1600 80
WIRE 464 176 464 160
WIRE 560 176 560 80
WIRE 848 176 560 176
WIRE 1392 176 1392 80
WIRE 1392 176 1168 176
WIRE 1504 176 1504 160
WIRE 352 272 352 208
WIRE 688 272 624 272
WIRE 848 272 752 272
WIRE 1232 272 1168 272
WIRE 1344 272 1296 272
WIRE 1600 272 1600 208
WIRE 352 400 352 336
WIRE 1600 400 1600 336
WIRE 704 464 544 464
WIRE 848 464 704 464
WIRE 1328 464 1168 464
WIRE 1456 464 1328 464
WIRE 544 480 544 464
WIRE 704 480 704 464
WIRE 1328 480 1328 464
WIRE 1456 480 1456 464
WIRE 352 528 352 464
WIRE 480 528 352 528
WIRE 1600 528 1600 464
WIRE 1600 528 1520 528
WIRE 352 544 352 528
WIRE 1600 544 1600 528
WIRE 704 560 704 544
WIRE 848 560 816 560
WIRE 1248 560 1168 560
WIRE 1328 560 1328 544
WIRE 1248 576 1248 560
WIRE 544 592 544 576
WIRE 1456 608 1456 576
WIRE 352 640 352 624
WIRE 1600 640 1600 624
WIRE 816 656 816 560
WIRE 848 656 816 656
WIRE 1184 656 1168 656
WIRE 1248 672 1248 656
WIRE 1008 720 1008 704
WIRE 816 752 816 656
WIRE 1184 752 1184 656
WIRE 1184 752 816 752
FLAG 256 16 0
FLAG 1504 176 0
FLAG 1200 144 0
FLAG 352 16 0
FLAG 256 -96 IN
FLAG 1600 80 OUT2
FLAG 1600 640 0
FLAG 1456 608 0
FLAG 624 272 0
FLAG 720 144 0
FLAG 352 80 OUT1
FLAG 464 176 0
FLAG 544 592 0
FLAG 352 640 0
FLAG 1008 720 0
FLAG 1248 672 0
FLAG 1328 560 0
FLAG 704 560 0
FLAG 1344 272 0
SYMBOL voltage 256 -96 R0
WINDOW 0 26 19 Left 0
WINDOW 3 24 99 Left 0
WINDOW 123 0 0 Left 0
WINDOW 39 0 0 Left 0
SYMATTR InstName V1
SYMATTR Value 32
SYMBOL ind 1264 96 R270
WINDOW 0 32 56 VTop 0
WINDOW 3 5 56 VBottom 0
SYMATTR InstName L1
SYMATTR Value 47µ
SYMATTR SpiceLine Rser=.10 Rpar=1K
SYMBOL cap 1184 0 R0
SYMATTR InstName C1
SYMATTR Value .22µ
SYMBOL cap 688 480 R0
SYMATTR InstName C2
SYMATTR Value .1µ
SYMBOL res 1232 672 M180
WINDOW 0 36 76 Left 0
WINDOW 3 36 40 Left 0
SYMATTR InstName R1
SYMATTR Value 24.3K
SYMBOL schottky 1184 144 M180
WINDOW 0 39 37 Left 0
WINDOW 3 40 10 Left 0
SYMATTR InstName D1
SYMATTR Value 1N5819
SYMATTR Description Diode
SYMATTR Type diode
SYMBOL cap 1488 96 R0
SYMATTR InstName C3
SYMATTR Value 2.2µ
SYMATTR SpiceLine Rser=.025
SYMBOL cap 336 -80 R0
SYMATTR InstName C4
SYMATTR Value 2.2µ
SYMATTR SpiceLine Rser=.025
SYMBOL res 1584 112 R0
SYMATTR InstName R2
SYMATTR Value 10K
SYMBOL res 1584 528 R0
SYMATTR InstName R3
SYMATTR Value 100K
SYMBOL zener 1584 464 M180
WINDOW 0 24 72 Left 0
WINDOW 3 24 0 Left 0
SYMATTR InstName D2
SYMATTR Value BZX84C10L
SYMATTR Description Diode
SYMATTR Type diode
SYMBOL npn 1520 480 M0
WINDOW 0 44 -5 Right 0
WINDOW 3 44 108 Right 0
SYMATTR InstName Q1
SYMATTR Value 2N3904
SYMBOL zener 1392 0 R270
WINDOW 0 32 32 VTop 0
WINDOW 3 0 32 VBottom 0
SYMATTR InstName D3
SYMATTR Value BZX84C8V2L
SYMATTR Description Diode
SYMATTR Type diode
SYMBOL zener 1584 336 M180
WINDOW 0 24 72 Left 0
WINDOW 3 24 0 Left 0
SYMATTR InstName D4
SYMATTR Value BZX84C10L
SYMATTR Description Diode
SYMATTR Type diode
SYMBOL PowerProducts\\LT3475-1 1008 272 R0
SYMATTR InstName U1
SYMBOL diode 1328 -32 R90
WINDOW 0 0 32 VBottom 0
WINDOW 3 32 32 VTop 0
SYMATTR InstName D5
SYMATTR Value 1N4148
SYMBOL LED 752 256 R90
WINDOW 0 0 32 VBottom 0
WINDOW 3 78 39 VTop 0
WINDOW 123 101 42 VTop 0
SYMATTR InstName D6
SYMATTR Value LXK2-PW14
SYMATTR Value2 N=4
SYMATTR Description Diode
SYMATTR Type diode
SYMBOL cap 768 0 R0
SYMATTR InstName C5
SYMATTR Value .22µ
SYMBOL diode 656 0 R270
WINDOW 0 32 32 VTop 0
WINDOW 3 0 32 VBottom 0
SYMATTR InstName D7
SYMATTR Value 1N4148
SYMBOL zener 592 -32 R90
WINDOW 0 0 32 VBottom 0
WINDOW 3 32 32 VTop 0
SYMATTR InstName D8
SYMATTR Value BZX84C8V2L
SYMATTR Description Diode
SYMATTR Type diode
SYMBOL zener 336 336 M180
WINDOW 0 24 72 Left 0
WINDOW 3 24 0 Left 0
SYMATTR InstName D9
SYMATTR Value BZX84C10L
SYMATTR Description Diode
SYMATTR Type diode
SYMBOL zener 336 464 M180
WINDOW 0 24 72 Left 0
WINDOW 3 24 0 Left 0
SYMATTR InstName D10
SYMATTR Value BZX84C10L
SYMATTR Description Diode
SYMATTR Type diode
SYMBOL schottky 704 144 M180
WINDOW 0 43 44 Left 0
WINDOW 3 40 14 Left 0
SYMATTR InstName D11
SYMATTR Value 1N5819
SYMATTR Description Diode
SYMATTR Type diode
SYMBOL ind 688 96 M270
WINDOW 0 32 56 VTop 0
WINDOW 3 5 56 VBottom 0
SYMATTR InstName L2
SYMATTR Value 47µ
SYMATTR SpiceLine Rser=.1 Rpar=1K
SYMBOL res 336 112 R0
SYMATTR InstName R4
SYMATTR Value 10K
SYMBOL res 336 528 R0
SYMATTR InstName R5
SYMATTR Value 100K
SYMBOL cap 448 96 R0
WINDOW 0 32 6 Left 0
WINDOW 3 26 60 Left 0
SYMATTR InstName C6
SYMATTR Value 2.2µ
SYMATTR SpiceLine Rser=.025
SYMBOL npn 480 480 R0
SYMATTR InstName Q2
SYMATTR Value 2N3904
SYMBOL cap 1312 480 R0
SYMATTR InstName C7
SYMATTR Value .1µ
SYMBOL LED 1232 288 R270
WINDOW 0 72 32 VTop 0
WINDOW 3 -2 32 VBottom 0
WINDOW 123 -28 28 VBottom 0
SYMATTR InstName D12
SYMATTR Value LXK2-PW14
SYMATTR Value2 N=4
SYMATTR Description Diode
SYMATTR Type diode
TEXT 1400 688 Left 0 !.tran 2ms startup
TEXT 336 744 Left 0 ;Note:\n  If the simulation model is not found please update with the "Sync Release" command from the "Tools" menu.\n  It remains the customer's responsibility to verify proper and reliable operation in the actual application.\n  Component substitution and printed circuit board layout may significantly affect circuit performance or reliability.\n  Contact your local sales representative for assistance. This circuit is distributed to customers only for use with LTC parts.\n  Copyright © 2009 Linear Technology Inc.  All rights reserved.
TEXT 1040 -112 Bottom 0 ;LT3475-1 - 1.5A, Wide Input Range Dual Step-Down LED Driver DC/DC Converter\nInput: 32V        Output: 1.5A through two strings of four LEDs
