Version 4
SHEET 1 1264 732
WIRE -32 80 -144 80
WIRE 48 80 -32 80
WIRE 80 80 48 80
WIRE 208 80 160 80
WIRE -144 112 -144 80
WIRE -32 112 -32 80
WIRE 208 128 208 80
WIRE 432 128 384 128
WIRE 592 128 496 128
WIRE 768 128 656 128
WIRE 912 128 832 128
WIRE 48 192 48 80
WIRE 80 192 48 192
WIRE 384 192 384 128
WIRE 384 192 336 192
WIRE 912 192 912 128
WIRE 912 192 480 192
WIRE -144 208 -144 192
WIRE -32 208 -32 176
WIRE 384 208 384 192
WIRE 480 288 480 192
WIRE 512 288 480 288
WIRE 672 288 576 288
WIRE 832 288 736 288
WIRE 928 288 896 288
WIRE 48 304 48 192
WIRE 80 304 48 304
WIRE 384 304 384 288
WIRE 384 304 336 304
WIRE 208 384 208 368
WIRE 384 384 384 368
FLAG -144 208 0
FLAG 208 384 0
FLAG 384 384 0
FLAG -32 208 0
FLAG 928 288 0
FLAG -144 80 IN
SYMBOL voltage -144 96 R0
WINDOW 123 0 0 Left 0
WINDOW 39 24 103 Left 0
SYMATTR Value 3
SYMATTR InstName V1
SYMBOL cap -48 112 R0
SYMATTR InstName C1
SYMATTR Value 1µ
SYMATTR SpiceLine Rser=0.005
SYMBOL cap 368 304 R0
WINDOW 0 26 12 Left 0
WINDOW 3 25 50 Left 0
SYMATTR InstName C2
SYMATTR Value .47µ
SYMATTR SpiceLine Rser=0.005
SYMBOL res 368 304 M180
WINDOW 0 36 76 Left 0
WINDOW 3 36 40 Left 0
SYMATTR InstName R1
SYMATTR Value 10
SYMBOL ind 64 96 R270
WINDOW 0 32 56 VTop 0
WINDOW 3 5 56 VBottom 0
SYMATTR InstName L1
SYMATTR Value 15µ
SYMATTR SpiceLine Rser=0.95
SYMBOL LED 432 144 R270
WINDOW 3 0 32 VBottom 0
WINDOW 0 72 32 VTop 0
SYMATTR Value NSPW500BS
SYMATTR InstName D1
SYMBOL PowerProducts\\LT3491 208 240 R0
SYMATTR InstName U1
SYMBOL LED 592 144 R270
WINDOW 3 0 32 VBottom 0
WINDOW 0 72 32 VTop 0
SYMATTR Value NSPW500BS
SYMATTR InstName D2
SYMBOL LED 768 144 R270
WINDOW 3 0 32 VBottom 0
WINDOW 0 72 32 VTop 0
SYMATTR Value NSPW500BS
SYMATTR InstName D3
SYMBOL LED 512 304 R270
WINDOW 3 0 32 VBottom 0
WINDOW 0 72 32 VTop 0
SYMATTR Value NSPW500BS
SYMATTR InstName D4
SYMBOL LED 672 304 R270
WINDOW 3 0 32 VBottom 0
WINDOW 0 72 32 VTop 0
SYMATTR Value NSPW500BS
SYMATTR InstName D5
SYMBOL LED 832 304 R270
WINDOW 3 0 32 VBottom 0
WINDOW 0 72 32 VTop 0
SYMATTR Value NSPW500BS
SYMATTR InstName D6
TEXT 662 378 Left 0 !.tran .3m startup
TEXT 368 16 Bottom 0 ;LT3491 - LED Driver in SC70 With Build-in Schottky\nInput: 3V to 5V       Output: 20mA through 6 LEDs
TEXT -208 400 Left 0 ;Note:\n  If the simulation model is not found please update with the "Sync Release" command from the "Tools" menu.\n  It remains the customer's responsibility to verify proper and reliable operation in the actual application.\n  Component substitution and printed circuit board layout may significantly affect circuit performance or reliability\n  Contact your local sales representative for assistance. This circuit is distributed to customers only for use with LTC parts\n  Copyright © 2006 Linear Technology Inc. All rights reserved.
