Version 4
SHEET 1 1308 680
WIRE -112 80 -112 64
WIRE -112 176 -112 160
WIRE -64 304 -80 304
WIRE -48 384 -48 368
WIRE -48 480 -48 464
WIRE -16 64 -112 64
WIRE -16 176 -16 64
WIRE -16 240 -16 176
WIRE 16 176 -16 176
WIRE 16 240 -16 240
WIRE 16 304 0 304
WIRE 16 368 -48 368
WIRE 64 64 -16 64
WIRE 64 112 64 64
WIRE 176 112 176 64
WIRE 176 432 176 416
WIRE 192 64 176 64
WIRE 288 64 272 64
WIRE 288 112 288 64
WIRE 352 240 336 240
WIRE 352 304 336 304
WIRE 352 304 352 240
WIRE 352 368 336 368
WIRE 384 64 288 64
WIRE 448 368 432 368
WIRE 448 384 448 368
WIRE 448 464 448 448
WIRE 528 64 448 64
WIRE 528 80 528 64
WIRE 528 176 336 176
WIRE 528 176 528 160
WIRE 528 192 528 176
WIRE 528 288 528 272
WIRE 640 64 528 64
WIRE 640 96 640 64
WIRE 640 192 640 160
WIRE 720 64 640 64
WIRE 720 80 720 64
WIRE 720 192 720 160
FLAG 448 464 0
FLAG 176 432 0
FLAG -80 304 0
FLAG -48 480 0
FLAG -112 176 0
FLAG 640 192 0
FLAG 528 288 0
FLAG 720 192 0
FLAG 720 64 OUT
FLAG -112 64 IN
SYMBOL PowerProducts\\LT3479 176 256 R0
SYMATTR InstName U1
SYMBOL ind 176 80 R270
WINDOW 0 32 56 VTop 0
WINDOW 3 5 56 VBottom 0
SYMATTR InstName L1
SYMATTR Value 4.7µ
SYMBOL res 336 384 R270
WINDOW 0 32 56 VTop 0
WINDOW 3 0 56 VBottom 0
SYMATTR InstName R1
SYMATTR Value 10K
SYMBOL cap 432 384 R0
SYMATTR InstName C1
SYMATTR Value 2.2n
SYMBOL cap 0 288 R90
WINDOW 0 0 32 VBottom 0
WINDOW 3 32 32 VTop 0
SYMATTR InstName C2
SYMATTR Value 10n
SYMBOL res -64 368 R0
SYMATTR InstName R2
SYMATTR Value 17.8K
SYMBOL voltage -112 64 R0
SYMATTR InstName V1
SYMATTR Value 5
SYMBOL schottky 384 80 R270
WINDOW 0 32 32 VTop 0
WINDOW 3 0 32 VBottom 0
SYMATTR InstName D1
SYMATTR Value PMEG2020AEA
SYMATTR Description Diode
SYMATTR Type diode
SYMBOL res 512 64 R0
SYMATTR InstName R3
SYMATTR Value 200K
SYMBOL res 512 176 R0
SYMATTR InstName R4
SYMATTR Value 23.2K
SYMBOL cap 624 96 R0
SYMATTR InstName C3
SYMATTR Value 10µ
SYMBOL res 704 64 R0
SYMATTR InstName R5
SYMATTR Value 15
TEXT 518 346 Left 0 !.tran 1m startup
TEXT 288 16 Bottom 0 ;LT3479 - 3A, 300KHz to 3.5MHz, Full Featured Step-up DC/DC Converter\nInput: 5V       Output: 12V at 0.8A
TEXT -256 496 Left 0 ;Note:\n  If the simulation model is not found please update with the "Sync Release" command from the "Tools" menu.\n  It remains the customer's responsibility to verify proper and reliable operation in the actual application.\n  Component substitution and printed circuit board layout may significantly affect circuit performance or reliability\n  Contact your local sales representative for assistance. This circuit is distributed to customers only for use with LTC parts\n  Copyright © 2006 Linear Technology Inc. All rights reserved.
