Version 4
SHEET 1 1764 1340
WIRE 288 576 176 576
WIRE 416 576 288 576
WIRE 576 576 416 576
WIRE 672 576 576 576
WIRE 688 576 672 576
WIRE 784 576 768 576
WIRE 176 592 176 576
WIRE 288 592 288 576
WIRE 416 592 416 576
WIRE 576 624 576 576
WIRE 672 624 672 576
WIRE 176 688 176 672
WIRE 288 688 288 656
WIRE 416 688 416 672
WIRE 496 688 416 688
WIRE 784 688 784 576
WIRE 784 688 752 688
WIRE 240 768 112 768
WIRE 288 768 240 768
WIRE 416 768 416 752
WIRE 416 768 368 768
WIRE 496 768 416 768
WIRE 784 768 752 768
WIRE 896 768 784 768
WIRE 992 768 896 768
WIRE 112 784 112 768
WIRE 992 784 992 768
WIRE 240 848 240 768
WIRE 304 848 240 848
WIRE 320 848 304 848
WIRE 416 848 400 848
WIRE 496 848 416 848
WIRE 784 848 752 848
WIRE 896 848 896 832
WIRE 896 848 784 848
WIRE 240 864 240 848
WIRE 992 864 992 848
WIRE 112 880 112 864
WIRE 496 928 448 928
WIRE 816 928 752 928
WIRE 928 928 816 928
WIRE 240 944 240 928
WIRE 304 944 304 848
WIRE 320 944 304 944
WIRE 416 944 416 848
WIRE 416 944 384 944
WIRE 448 944 448 928
WIRE 816 944 816 928
WIRE 928 944 928 928
WIRE 624 992 624 976
WIRE 448 1040 448 1008
WIRE 816 1040 816 1008
WIRE 928 1040 928 1024
FLAG 928 928 OUT1
FLAG 992 864 0
FLAG 928 1040 0
FLAG 176 688 0
FLAG 288 688 0
FLAG 176 576 IN
FLAG 240 944 0
FLAG 624 992 0
FLAG 816 1040 0
FLAG 112 768 OUT2
FLAG 112 880 0
FLAG 448 1040 0
SYMBOL VOLTAGE 176 576 R0
SYMATTR InstName V1
SYMATTR Value 3.3
SYMBOL ind 400 688 M180
WINDOW 0 36 80 Left 0
WINDOW 3 36 40 Left 0
SYMATTR InstName L1
SYMATTR Value 15µ
SYMATTR SpiceLine Rser=.275 Rpar=1K
SYMBOL cap 272 592 R0
SYMATTR InstName C1
SYMATTR Value 1µ
SYMBOL cap 976 784 R0
SYMATTR InstName C2
SYMATTR Value 10µ
SYMBOL PowerProducts\\LT3487 624 800 R0
SYMATTR InstName U1
SYMBOL ind 672 592 R270
WINDOW 0 32 56 VTop 0
WINDOW 3 5 56 VBottom 0
SYMATTR InstName L2
SYMATTR Value 15µ
SYMATTR SpiceLine Rser=.275 Rpar=1K
SYMBOL ind 272 784 R270
WINDOW 0 32 56 VTop 0
WINDOW 3 5 56 VBottom 0
SYMATTR InstName L3
SYMATTR Value 15µ
SYMATTR SpiceLine Rser=.275 Rpar=1K
SYMBOL cap 400 688 R0
WINDOW 0 24 12 Left 0
SYMATTR InstName C3
SYMATTR Value 2.2µ
SYMBOL cap 224 864 R0
SYMATTR InstName C4
SYMATTR Value 10µ
SYMBOL res 416 832 R90
WINDOW 0 0 56 VBottom 0
WINDOW 3 32 56 VTop 0
SYMATTR InstName R1
SYMATTR Value 324K
SYMBOL res 768 752 R0
SYMATTR InstName R2
SYMATTR Value 549K
SYMBOL cap 800 944 R0
SYMATTR InstName C5
SYMATTR Value .1µ
SYMBOL cap 432 944 R0
SYMATTR InstName C6
SYMATTR Value 100p
SYMBOL cap 384 928 R90
WINDOW 0 0 32 VBottom 0
WINDOW 3 32 32 VTop 0
SYMATTR InstName C7
SYMATTR Value 27p
SYMBOL cap 880 832 M180
WINDOW 0 32 47 Left 0
WINDOW 3 24 8 Left 0
SYMATTR InstName C8
SYMATTR Value 10p
SYMBOL res 96 768 R0
SYMATTR InstName Rload2
SYMATTR Value 88
SYMBOL res 912 928 R0
SYMATTR InstName Rload1
SYMATTR Value 330
TEXT 40 1080 Left 0 ;Note:\n  If the simulation model is not found please update with the "Sync Release" command from the "Tools" menu.\n  It remains the customer's responsibility to verify proper and reliable operation in the actual application.\n  Component substitution and printed circuit board layout may significantly affect circuit performance or reliability.\n  Contact your local sales representative for assistance. This circuit is distributed to customers only for use with LTC parts.\n  Copyright © 2006 Linear Technology Inc. All rights reserved.
TEXT 560 1056 Left 0 !.tran 2.5m startup
TEXT 544 528 Bottom 0 ;LT3487 - 750mA and 900mA, 2MHz, Boost and Inverting Regulator for CCD Bias\nInput: 3.3V    Outputs: 15V@45mA and -8V@90mA
