Version 4
SHEET 1 1976 680
WIRE 160 -128 48 -128
WIRE 176 -128 160 -128
WIRE 272 -128 256 -128
WIRE 320 -128 272 -128
WIRE 432 -128 384 -128
WIRE 48 -96 48 -128
WIRE 272 -80 272 -128
WIRE 432 -80 432 -128
WIRE 160 -16 160 -128
WIRE 208 -16 160 -16
WIRE 512 -16 496 -16
WIRE 544 -16 512 -16
WIRE 704 -16 544 -16
WIRE 784 -16 704 -16
WIRE 48 0 48 -16
WIRE 544 0 544 -16
WIRE 784 0 784 -16
WIRE 160 48 160 -16
WIRE 208 48 160 48
WIRE 512 48 512 -16
WIRE 512 48 496 48
WIRE 704 64 704 -16
WIRE 160 112 160 48
WIRE 208 112 160 112
WIRE 544 112 544 64
WIRE 544 112 496 112
WIRE 576 112 544 112
WIRE 656 112 640 112
WIRE 160 176 160 112
WIRE 208 176 160 176
WIRE 704 176 704 128
WIRE 704 176 496 176
WIRE 784 176 784 80
WIRE 784 176 704 176
WIRE 800 176 784 176
WIRE 896 176 880 176
WIRE 144 240 48 240
WIRE 208 240 144 240
WIRE 944 240 496 240
WIRE 144 256 144 240
WIRE 944 256 944 240
WIRE 48 272 48 240
WIRE 352 320 352 304
WIRE 48 352 48 336
WIRE 144 352 144 336
WIRE 944 352 944 336
FLAG 352 320 0
FLAG 144 352 0
FLAG 48 0 0
FLAG 896 176 0
FLAG 48 -128 IN
FLAG 656 112 0
FLAG 944 352 0
FLAG 48 352 0
FLAG 944 240 APD
SYMBOL ind 160 -112 R270
WINDOW 0 32 56 VTop 0
WINDOW 3 5 56 VBottom 0
SYMATTR InstName L1
SYMATTR Value 10µ
SYMATTR SpiceLine Rser=.05 Rpar=3k
SYMBOL cap 32 336 M180
WINDOW 0 24 64 Left 0
WINDOW 3 24 8 Left 0
SYMATTR InstName C1
SYMATTR Value .01µ
SYMBOL res 128 240 R0
SYMATTR InstName R1
SYMATTR Value 10K
SYMBOL voltage 48 -112 R0
SYMATTR InstName V1
SYMATTR Value 5
SYMBOL res 768 -16 R0
SYMATTR InstName R2
SYMATTR Value 1Meg
SYMBOL res 784 192 R270
WINDOW 0 32 56 VTop 0
WINDOW 3 0 56 VBottom 0
SYMATTR InstName R3
SYMATTR Value 14k
SYMBOL PowerProducts\\LT3482 352 112 R0
SYMATTR InstName U1
SYMBOL cap 528 0 R0
WINDOW 3 25 56 Left 0
SYMATTR Value .22µ
SYMATTR InstName C2
SYMBOL cap 576 128 R270
WINDOW 0 32 32 VTop 0
WINDOW 3 0 32 VBottom 0
SYMATTR InstName C3
SYMATTR Value 0.22µ
SYMBOL cap 384 -144 R90
WINDOW 0 0 32 VBottom 0
WINDOW 3 32 32 VTop 0
SYMATTR InstName C4
SYMATTR Value .1µ
SYMBOL cap 688 64 R0
SYMATTR InstName C5
SYMATTR Value 100p
SYMBOL res 928 240 R0
SYMATTR InstName Rload
SYMATTR Value 34K
TEXT 680 320 Left 0 !.tran 2m startup
TEXT -88 384 Left 0 ;Note:\n  If the simulation model is not found please update with the "Sync Release" command from the "Tools" menu.\n  It remains the customer's responsibility to verify proper and reliable operation in the actual application.\n  Component substitution and printed circuit board layout may significantly affect circuit performance or reliability\n  Contact your local sales representative for assistance. This circuit is distributed to customers only for use with LTC parts\n  Copyright © 2006 Linear Technology Inc. All rights reserved.
TEXT 360 -192 Bottom 0 ;LT3482 - 280mA, 85V Boost DC/DC Converter for APD Bias\nInput: 5V       Output: 85V@2.5mA
