Version 4
SHEET 1 1084 716
WIRE 288 48 160 48
WIRE 352 48 288 48
WIRE 576 48 416 48
WIRE -144 64 -256 64
WIRE -80 64 -144 64
WIRE 32 64 -80 64
WIRE 288 64 288 48
WIRE -256 80 -256 64
WIRE -144 96 -144 64
WIRE 32 96 32 64
WIRE 160 96 160 48
WIRE 416 112 352 112
WIRE 464 112 416 112
WIRE 576 112 576 48
WIRE 576 112 544 112
WIRE 624 112 576 112
WIRE 720 112 624 112
WIRE 416 128 416 112
WIRE 624 128 624 112
WIRE 720 128 720 112
WIRE -80 160 -80 64
WIRE -64 160 -80 160
WIRE 288 160 288 128
WIRE 288 160 256 160
WIRE 352 160 352 112
WIRE 352 160 288 160
WIRE -256 192 -256 160
WIRE -144 192 -144 160
WIRE 416 208 416 192
WIRE 624 224 624 192
WIRE 720 224 720 208
WIRE 384 240 256 240
WIRE 496 240 384 240
WIRE 576 240 576 112
WIRE 576 240 496 240
WIRE 384 256 384 240
WIRE 576 272 576 240
WIRE 496 288 496 240
WIRE 384 320 256 320
WIRE -192 400 -256 400
WIRE -112 400 -128 400
WIRE -64 400 -112 400
WIRE 496 400 496 352
WIRE 496 400 256 400
WIRE 576 400 576 352
WIRE 576 400 496 400
WIRE -256 416 -256 400
WIRE -112 416 -112 400
WIRE 576 416 576 400
WIRE 96 480 96 464
WIRE -256 512 -256 496
WIRE -112 512 -112 480
WIRE 576 512 576 496
FLAG 416 208 0
FLAG 624 224 0
FLAG 576 512 0
FLAG -256 512 0
FLAG -256 192 0
FLAG 96 480 0
FLAG 720 224 0
FLAG 720 112 OUT
FLAG -256 64 IN
FLAG -112 512 0
FLAG -144 192 0
SYMBOL PowerProducts\\LT3437 96 320 R0
SYMATTR InstName U1
SYMBOL ind 448 128 R270
WINDOW 0 32 56 VTop 0
WINDOW 3 5 56 VBottom 0
SYMATTR InstName L1
SYMATTR Value 100µ
SYMATTR SpiceLine Rser=.15
SYMBOL schottky 400 192 M180
WINDOW 0 23 58 Left 0
WINDOW 3 24 0 Left 0
SYMATTR InstName D1
SYMATTR Value MBRS1100
SYMATTR Description Diode
SYMATTR Type diode
SYMBOL diode 416 64 M270
WINDOW 0 32 32 VTop 0
WINDOW 3 0 32 VBottom 0
SYMATTR InstName D2
SYMATTR Value 1N4148
SYMBOL voltage -256 64 R0
WINDOW 123 0 0 Left 0
WINDOW 39 0 0 Left 0
SYMATTR InstName V1
SYMATTR Value 24
SYMBOL res 560 256 R0
SYMATTR InstName R1
SYMATTR Value 165K
SYMBOL res 560 400 R0
SYMATTR InstName R2
SYMATTR Value 100K
SYMBOL cap 368 256 R0
SYMATTR InstName C1
SYMATTR Value .1µ
SYMBOL cap -128 384 R90
WINDOW 0 0 32 VBottom 0
WINDOW 3 32 32 VTop 0
SYMATTR InstName C2
SYMATTR Value 1500p
SYMBOL res -272 400 R0
SYMATTR InstName R3
SYMATTR Value 25K
SYMBOL cap 480 288 R0
SYMATTR InstName C3
SYMATTR Value 27p
SYMBOL polcap 608 128 R0
WINDOW 3 24 64 Left 0
SYMATTR Value 100µ
SYMATTR InstName C4
SYMATTR Description Capacitor
SYMATTR Type cap
SYMATTR SpiceLine Rser=0.
SYMBOL cap -128 416 R0
SYMATTR InstName C5
SYMATTR Value 330p
SYMBOL cap -160 96 R0
SYMATTR InstName C6
SYMATTR Value 2.2µ
SYMBOL cap 272 64 R0
SYMATTR InstName C7
SYMATTR Value .1µ
SYMBOL res 704 112 R0
SYMATTR InstName Rload
SYMATTR Value 8.25
TEXT 672 368 Left 0 !.tran 12m startup
TEXT 176 -8 Bottom 0 ;LT3437 - High Voltage 500mA 200kHz Step-Down Switching Regulator with 100uA Quiescent Current\nInput: 24V    Outout: 3.3V @ 400mA
TEXT -384 536 Left 0 ;Note:\n  If the simulation model is not found please update with the "Sync Release" command from the "Tools" menu.\n  It remains the customer's responsibility to verify proper and reliable operation in the actual application.\n  Component substitution and printed circuit board layout may significantly affect circuit performance or reliability\n  Contact your local sales representative for assistance. This circuit is distributed to customers only for use with LTC parts\n  Copyright © 2006 Linear Technology Inc. All rights reserved.
