Version 4
SHEET 1 1792 724
WIRE 48 -144 32 -144
WIRE 144 -144 128 -144
WIRE 240 -144 144 -144
WIRE 400 -144 336 -144
WIRE 528 -144 464 -144
WIRE 528 -112 528 -144
WIRE 32 -48 32 -144
WIRE 352 -48 32 -48
WIRE 560 -48 352 -48
WIRE 720 -48 560 -48
WIRE 560 -32 560 -48
WIRE 352 -16 352 -48
WIRE 32 16 32 -48
WIRE 144 16 144 -144
WIRE 256 16 256 -96
WIRE 560 48 560 32
WIRE -160 80 -240 80
WIRE -64 80 -160 80
WIRE -32 80 -64 80
WIRE 352 80 352 48
WIRE 352 80 320 80
WIRE 576 80 352 80
WIRE 880 80 656 80
WIRE 976 80 880 80
WIRE -240 96 -240 80
WIRE -160 96 -160 80
WIRE 880 96 880 80
WIRE 976 96 976 80
WIRE -64 144 -64 80
WIRE -32 144 -64 144
WIRE 576 144 320 144
WIRE 720 144 720 -48
WIRE -160 176 -160 160
WIRE -240 192 -240 176
WIRE 880 192 880 160
WIRE 976 192 976 176
WIRE -64 208 -128 208
WIRE -32 208 -64 208
WIRE 336 208 320 208
WIRE 432 208 416 208
WIRE 512 208 496 208
WIRE -128 224 -128 208
WIRE 576 240 576 144
WIRE 720 240 720 224
WIRE 720 240 576 240
WIRE 720 256 720 240
WIRE -64 272 -64 208
WIRE -32 272 -64 272
WIRE -128 320 -128 288
WIRE -64 336 -64 272
WIRE -32 336 -64 336
WIRE 368 336 320 336
WIRE 720 352 720 336
WIRE 368 368 368 336
WIRE 144 400 144 384
WIRE 368 464 368 448
FLAG 144 400 0
FLAG 976 192 0
FLAG -240 192 0
FLAG 368 464 0
FLAG -128 320 0
FLAG 880 192 0
FLAG -160 176 0
FLAG 720 352 0
FLAG 528 -112 0
FLAG 560 48 0
FLAG 512 208 0
SYMBOL res 32 -128 R270
WINDOW 0 32 56 VTop 2
WINDOW 3 0 56 VBottom 2
SYMATTR InstName R1
SYMATTR Value 1.65
SYMBOL ind 672 96 M270
WINDOW 0 32 56 VTop 2
WINDOW 3 5 56 VBottom 2
SYMATTR InstName L1
SYMATTR Value 27µ
SYMATTR SpiceLine Ipk=2.4 Rser=0.0565 Rpar=2545 Cpar=0 mfg="Coilcraft" pn="MSS1260-273MX"
SYMBOL schottky 336 48 M180
WINDOW 0 24 64 Left 2
WINDOW 3 24 0 Left 2
SYMATTR InstName D2
SYMATTR Value PMEG6010AED
SYMATTR Description Diode
SYMATTR Type diode
SYMBOL cap 496 192 R90
WINDOW 0 0 32 VBottom 2
WINDOW 3 32 32 VTop 2
WINDOW 39 53 32 VTop 2
SYMATTR InstName C2
SYMATTR Value 2000p
SYMBOL voltage 976 80 R0
WINDOW 123 0 0 Left 2
WINDOW 39 0 0 Left 2
SYMATTR InstName V2
SYMATTR Value 12
SYMBOL voltage -240 80 R0
SYMATTR InstName V3
SYMATTR Value 5
SYMBOL voltage 368 352 R0
WINDOW 123 0 0 Left 2
WINDOW 39 0 0 Left 2
SYMATTR InstName V1
SYMATTR Value PULSE(5 0 1m 1u 1u 500u 1m)
SYMBOL cap -144 224 R0
SYMATTR InstName C3
SYMATTR Value 10n
SYMBOL LED 400 -128 R270
WINDOW 0 40 51 VRight 2
WINDOW 3 0 32 VBottom 2
WINDOW 123 -59 32 VTop 2
SYMATTR InstName D1-D15
SYMATTR Value QTLP690C
SYMATTR Value2 N=15
SYMATTR Description Diode
SYMATTR Type diode
SYMBOL cap 864 96 R0
SYMATTR InstName C4
SYMATTR Value 1µ
SYMATTR SpiceLine V=50
SYMBOL cap -176 96 R0
SYMATTR InstName C5
SYMATTR Value 1µ
SYMBOL pmos 336 -96 M270
WINDOW 0 88 47 VTop 2
WINDOW 3 55 47 VTop 2
SYMATTR InstName Q1
SYMATTR Value Si9407AEY
SYMBOL res 704 128 R0
SYMATTR InstName R2
SYMATTR Value 7.15Meg
SYMBOL res 704 240 R0
SYMATTR InstName R3
SYMATTR Value 124K
SYMBOL cap 544 -32 R0
SYMATTR InstName C1
SYMATTR Value 1µ
SYMATTR SpiceLine V=100
SYMBOL res 432 192 R90
WINDOW 0 0 56 VBottom 2
WINDOW 3 32 56 VTop 2
SYMATTR InstName R4
SYMATTR Value 18.2K
SYMBOL PowerProducts\\LT3492 144 208 R0
SYMATTR InstName U2
TEXT 872 408 Left 2 !.tran 3m startup
TEXT 312 -216 Bottom 2 ;LT3492 - Triple Output LED Driver with 3000:1 PWM Dimming\nTriple Boost LED Driver\nInput: 8V to 40V       Output: 15 LEDs (54V) @ 61mA
TEXT -296 488 Left 2 ;Note:\n  If the simulation model is not found please update with the "Sync Release" command from the "Tools" menu.\n  It remains the customer's responsibility to verify proper and reliable operation in the actual application.\n  Component substitution and printed circuit board layout may significantly affect circuit performance or reliability.\n  Contact your local sales representative for assistance. This circuit is distributed to customers only for use with LTC parts.\n  Copyright © 2012 Linear Technology Inc. All rights reserved.
