Version 4
SHEET 1 1932 1048
WIRE 832 -224 720 -224
WIRE 1008 -224 832 -224
WIRE 1136 -224 1008 -224
WIRE 720 -208 720 -224
WIRE 832 -208 832 -224
WIRE 720 -112 720 -128
WIRE 832 -112 832 -144
WIRE 1008 -112 1008 -224
WIRE 1136 -112 1136 -224
WIRE 752 -48 624 -48
WIRE 848 -48 816 -48
WIRE 912 -48 848 -48
WIRE 1280 -48 1232 -48
WIRE 1360 -48 1280 -48
WIRE 1504 -48 1424 -48
WIRE 848 -32 848 -48
WIRE 1280 -32 1280 -48
WIRE 624 48 624 -48
WIRE 624 48 560 48
WIRE 656 48 624 48
WIRE 768 48 736 48
WIRE 848 48 848 32
WIRE 848 48 768 48
WIRE 912 48 848 48
WIRE 1280 48 1280 32
WIRE 1280 48 1232 48
WIRE 1328 48 1280 48
WIRE 1392 48 1328 48
WIRE 1504 48 1504 -48
WIRE 1504 48 1472 48
WIRE 1552 48 1504 48
WIRE 560 64 560 48
WIRE 768 64 768 48
WIRE 1328 64 1328 48
WIRE 1552 64 1552 48
WIRE 768 144 768 128
WIRE 912 144 880 144
WIRE 1280 144 1232 144
WIRE 1328 144 1328 128
WIRE 560 160 560 128
WIRE 1552 160 1552 128
WIRE 624 176 624 48
WIRE 880 176 880 144
WIRE 880 176 624 176
WIRE 1280 176 1280 144
WIRE 1504 176 1504 48
WIRE 1504 176 1280 176
WIRE 912 240 736 240
WIRE 1360 240 1232 240
WIRE 736 256 736 240
WIRE 1360 256 1360 240
WIRE 736 336 736 320
WIRE 912 336 896 336
WIRE 1248 336 1232 336
WIRE 1360 336 1360 320
WIRE 816 432 800 432
WIRE 912 432 880 432
WIRE 1264 432 1232 432
WIRE 1344 432 1328 432
WIRE 912 528 880 528
WIRE 1248 528 1232 528
WIRE 1344 528 1328 528
WIRE 880 624 880 528
WIRE 912 624 880 624
WIRE 1248 624 1232 624
WIRE 1072 688 1072 672
WIRE 880 720 880 624
WIRE 1248 720 1248 624
WIRE 1248 720 880 720
FLAG 720 -112 0
FLAG 1552 160 0
FLAG 1344 528 0
FLAG 1328 144 0
FLAG 1360 336 0
FLAG 832 -112 0
FLAG 720 -224 IN
FLAG 1072 688 0
FLAG 768 144 0
FLAG 560 160 0
FLAG 736 336 0
FLAG 1344 432 0
FLAG 800 432 0
SYMBOL voltage 720 -224 R0
WINDOW 0 26 19 Left 0
WINDOW 3 24 99 Left 0
WINDOW 123 0 0 Left 0
WINDOW 39 0 0 Left 0
SYMATTR InstName V1
SYMATTR Value 12
SYMBOL ind 1376 64 R270
WINDOW 0 32 56 VTop 0
WINDOW 3 5 56 VBottom 0
SYMATTR InstName L1
SYMATTR Value 10µ
SYMATTR SpiceLine Rser=.060 Rpar=5K
SYMBOL cap 1264 -32 R0
WINDOW 3 32 43 Left 0
SYMATTR Value .22µ
SYMATTR InstName C1
SYMBOL res 1344 512 R90
WINDOW 0 0 56 VBottom 0
WINDOW 3 32 56 VTop 0
SYMATTR InstName R1
SYMATTR Value 24.3k
SYMBOL schottky 1312 128 M180
WINDOW 0 24 68 Left 0
WINDOW 3 24 0 Left 0
SYMATTR InstName D1
SYMATTR Value 1N5819
SYMATTR Description Diode
SYMATTR Type diode
SYMBOL cap 1536 64 R0
SYMATTR InstName C2
SYMATTR Value 2.2µ
SYMATTR SpiceLine Rser=.025
SYMBOL LED 1344 256 R0
WINDOW 3 28 65 Left 0
SYMATTR Value LXK2-PW14
SYMATTR InstName D2
SYMATTR Description Diode
SYMATTR Type diode
SYMBOL cap 816 -208 R0
SYMATTR InstName C3
SYMATTR Value 2.2µ
SYMATTR SpiceLine Rser=.025
SYMBOL PowerProducts\\LT3475 1072 240 R0
SYMATTR InstName U1
SYMBOL diode 1424 -64 R90
WINDOW 0 0 32 VBottom 0
WINDOW 3 32 32 VTop 0
SYMATTR InstName D3
SYMATTR Value 1N4148
SYMBOL ind 752 64 M270
WINDOW 0 32 56 VTop 0
WINDOW 3 5 56 VBottom 0
SYMATTR InstName L2
SYMATTR Value 10µ
SYMATTR SpiceLine Rser=.060 Rpar=5K
SYMBOL schottky 752 128 M180
WINDOW 0 39 51 Left 0
WINDOW 3 24 0 Left 0
SYMATTR InstName D4
SYMATTR Value 1N5819
SYMATTR Description Diode
SYMATTR Type diode
SYMBOL diode 752 -32 R270
WINDOW 0 32 32 VTop 0
WINDOW 3 0 32 VBottom 0
SYMATTR InstName D5
SYMATTR Value 1N4148
SYMBOL cap 832 -32 R0
SYMATTR InstName C4
SYMATTR Value .22µ
SYMBOL cap 544 64 R0
SYMATTR InstName C5
SYMATTR Value 2.2µ
SYMATTR SpiceLine Rser=.025
SYMBOL cap 880 416 R90
WINDOW 0 0 32 VBottom 0
WINDOW 3 32 32 VTop 0
SYMATTR InstName C6
SYMATTR Value 0.1µ
SYMBOL cap 1328 416 R90
WINDOW 0 0 32 VBottom 0
WINDOW 3 32 32 VTop 0
SYMATTR InstName C7
SYMATTR Value 0.1µ
SYMBOL LED 720 256 R0
WINDOW 3 28 65 Left 0
SYMATTR Value LXK2-PW14
SYMATTR InstName D6
SYMATTR Description Diode
SYMATTR Type diode
TEXT 1296 632 Left 0 !.tran 1.8ms startup
TEXT 1056 -232 Bottom 0 ;LT3475 - Dual 1.5A, Wide Input Range Step-Down LED Driver DC/DC Converter\nInput: 12V    Output: two 1.5A LED channels
TEXT 472 728 Left 0 ;Note:\n  If the simulation model is not found please update with the "Sync Release" command from the "Tools" menu.\n  It remains the customer's responsibility to verify proper and reliable operation in the actual application.\n  Component substitution and printed circuit board layout may significantly affect circuit performance or reliability.\n  Contact your local sales representative for assistance. This circuit is distributed to customers only for use with LTC parts.\n  Copyright © 2006 Linear Technology Inc. All rights reserved.
