Version 4
SHEET 1 1132 872
WIRE -144 128 -240 128
WIRE -64 128 -144 128
WIRE 48 128 -64 128
WIRE 64 128 48 128
WIRE 176 128 144 128
WIRE 272 128 176 128
WIRE 400 128 336 128
WIRE 464 128 400 128
WIRE 544 128 464 128
WIRE 688 128 608 128
WIRE -240 144 -240 128
WIRE 464 144 464 128
WIRE -144 160 -144 128
WIRE 688 160 688 128
WIRE 48 176 48 128
WIRE 176 176 176 128
WIRE 464 224 464 208
WIRE -240 240 -240 224
WIRE -144 240 -144 224
WIRE -64 240 -64 128
WIRE -32 240 -64 240
WIRE 400 240 400 128
WIRE 400 240 256 240
WIRE 688 288 688 224
WIRE -32 320 -64 320
WIRE 272 320 256 320
WIRE 368 320 352 320
WIRE 448 320 432 320
WIRE -64 400 -64 320
WIRE -32 400 -64 400
WIRE 272 400 256 400
WIRE 688 400 688 352
WIRE -64 480 -64 400
WIRE -32 480 -64 480
WIRE 336 480 256 480
WIRE 432 480 336 480
WIRE 576 480 496 480
WIRE 688 480 688 464
WIRE 688 480 640 480
WIRE 336 496 336 480
WIRE 112 544 112 528
WIRE 336 592 336 576
FLAG -240 240 0
FLAG -144 240 0
FLAG 464 224 0
FLAG 112 544 0
FLAG 336 592 0
FLAG 448 320 0
FLAG 352 400 0
FLAG -240 128 IN
SYMBOL PowerProducts\\LT3486 112 352 R0
SYMATTR InstName U1
SYMBOL LED 544 144 R270
WINDOW 3 0 32 VBottom 0
WINDOW 0 72 32 VTop 0
SYMATTR Value QTLP690C
SYMATTR InstName D1
SYMATTR Description Diode
SYMATTR Type diode
SYMBOL cap -160 160 R0
SYMATTR InstName C1
SYMATTR Value 4.7µ
SYMBOL cap 448 144 R0
SYMATTR InstName C2
SYMATTR Value 2.2µ
SYMATTR SpiceLine Rser=.020
SYMBOL cap 432 304 R90
WINDOW 0 0 32 VBottom 0
WINDOW 3 32 32 VTop 0
SYMATTR InstName C3
SYMATTR Value .01µ
SYMBOL voltage -240 128 R0
WINDOW 123 0 0 Left 0
WINDOW 39 0 0 Left 0
SYMATTR InstName V1
SYMATTR Value 5
SYMBOL ind 48 144 R270
WINDOW 0 32 56 VTop 0
WINDOW 3 5 56 VBottom 0
SYMATTR InstName L1
SYMATTR Value 10µ
SYMATTR SpiceLine Rser=.1 Rpar=2K
SYMBOL res 368 384 R90
WINDOW 0 0 56 VBottom 0
WINDOW 3 32 56 VTop 0
SYMATTR InstName R1
SYMATTR Value 63.4k
SYMBOL res 368 304 R90
WINDOW 0 0 56 VBottom 0
WINDOW 3 32 56 VTop 0
SYMATTR InstName R2
SYMATTR Value 5k
SYMBOL res 320 480 R0
SYMATTR InstName R3
SYMATTR Value 2
SYMBOL LED 672 160 R0
SYMATTR Value QTLP690C
SYMATTR InstName D2
SYMATTR Description Diode
SYMATTR Type diode
SYMBOL LED 672 288 R0
SYMATTR Value QTLP690C
SYMATTR InstName D3
SYMATTR Description Diode
SYMATTR Type diode
SYMBOL LED 672 400 R0
SYMATTR Value QTLP690C
SYMATTR InstName D4
SYMATTR Description Diode
SYMATTR Type diode
SYMBOL LED 640 496 M270
WINDOW 3 0 32 VBottom 0
WINDOW 0 72 32 VTop 0
SYMATTR Value QTLP690C
SYMATTR InstName D5
SYMATTR Description Diode
SYMATTR Type diode
SYMBOL LED 496 496 M270
WINDOW 3 0 32 VBottom 0
WINDOW 0 72 32 VTop 0
SYMATTR Value QTLP690C
SYMATTR InstName D6
SYMATTR Description Diode
SYMATTR Type diode
SYMBOL schottky 272 144 R270
WINDOW 0 32 32 VTop 0
WINDOW 3 0 32 VBottom 0
SYMATTR InstName D7
SYMATTR Value PMEG3005AEA
SYMATTR Description Diode
SYMATTR Type diode
TEXT 272 72 Bottom 0 ;LT3486 - 1A Step-Up LED Driver DC/DC Converter\nInput: 5V    Output: 100mA through six LEDs
TEXT 704 576 Left 0 !.tran 1m startup
TEXT -360 616 Left 0 ;Note:\n  If the simulation model is not found please update with the "Sync Release" command from the "Tools" menu.\n  It remains the customer's responsibility to verify proper and reliable operation in the actual application.\n  Component substitution and printed circuit board layout may significantly affect circuit performance or reliability.\n  Contact your local sales representative for assistance. This circuit is distributed to customers only for use with LTC parts.\n  Copyright © 2006 Linear Technology Inc. All rights reserved.
