Version 4
SHEET 1 1792 724
WIRE -64 -160 -160 -160
WIRE 32 -160 -64 -160
WIRE 768 -160 32 -160
WIRE 848 -160 768 -160
WIRE 768 -144 768 -160
WIRE -160 -128 -160 -160
WIRE -64 -112 -64 -160
WIRE 32 -64 32 -160
WIRE 48 -64 32 -64
WIRE 144 -64 128 -64
WIRE 240 -64 144 -64
WIRE 496 -64 336 -64
WIRE 560 -64 496 -64
WIRE 672 -64 624 -64
WIRE 768 -64 768 -80
WIRE 768 -64 672 -64
WIRE 848 -64 848 -160
WIRE 768 -32 768 -64
WIRE -160 -16 -160 -48
WIRE -64 -16 -64 -48
WIRE 496 -16 496 -64
WIRE 672 -16 672 -64
WIRE 32 16 32 -64
WIRE 144 16 144 -64
WIRE 256 16 256 -16
WIRE -192 80 -272 80
WIRE -64 80 -192 80
WIRE -32 80 -64 80
WIRE 768 80 768 48
WIRE 768 80 320 80
WIRE 848 80 848 0
WIRE 848 80 768 80
WIRE -272 96 -272 80
WIRE -192 96 -192 80
WIRE 496 96 496 64
WIRE -64 144 -64 80
WIRE -32 144 -64 144
WIRE 464 144 320 144
WIRE 672 144 672 64
WIRE 672 144 560 144
WIRE -272 192 -272 176
WIRE -192 192 -192 160
WIRE -64 208 -128 208
WIRE -32 208 -64 208
WIRE 336 208 320 208
WIRE 416 208 400 208
WIRE 464 208 464 144
WIRE 496 208 496 192
WIRE 496 208 464 208
WIRE -128 224 -128 208
WIRE 496 224 496 208
WIRE -64 272 -64 208
WIRE -32 272 -64 272
WIRE -128 320 -128 288
WIRE 496 320 496 304
WIRE -64 336 -64 272
WIRE -32 336 -64 336
WIRE 368 336 320 336
WIRE 368 368 368 336
WIRE 144 400 144 384
WIRE 368 464 368 448
FLAG 416 208 0
FLAG 144 400 0
FLAG -160 -16 0
FLAG -272 192 0
FLAG 368 464 0
FLAG -128 320 0
FLAG -64 -16 0
FLAG -192 192 0
FLAG 496 320 0
SYMBOL PowerProducts\\LT3496 144 208 R0
SYMATTR InstName U1
SYMBOL res 32 -48 R270
WINDOW 0 32 56 VTop 0
WINDOW 3 0 56 VBottom 0
SYMATTR InstName R1
SYMATTR Value .2
SYMBOL ind 752 -48 R0
SYMATTR InstName L1
SYMATTR Value 15µ
SYMATTR SpiceLine Ipk=1.72 Rser=0.07 Rpar=0 Cpar=0
SYMBOL schottky 832 0 M180
WINDOW 0 24 72 Left 0
WINDOW 3 24 0 Left 0
SYMATTR InstName D1
SYMATTR Value PMEG6010AED
SYMATTR Description Diode
SYMATTR Type diode
SYMBOL cap 752 -144 R0
SYMATTR InstName C1
SYMATTR Value .1µ
SYMATTR SpiceLine V=50 Irms=3.79 Rser=0.032 MTBF=0 Lser=0 ppPkg=1
SYMBOL cap 336 224 R270
WINDOW 0 32 32 VTop 0
WINDOW 3 0 32 VBottom 0
WINDOW 39 0 32 VBottom 0
SYMATTR InstName C2
SYMATTR Value 1000p
SYMBOL voltage -160 -144 R0
WINDOW 123 0 0 Left 0
WINDOW 39 0 0 Left 0
SYMATTR InstName V1
SYMATTR Value 42
SYMBOL voltage -272 80 R0
SYMATTR InstName V2
SYMATTR Value 5
SYMBOL voltage 368 352 R0
WINDOW 123 0 0 Left 0
WINDOW 39 0 0 Left 0
SYMATTR InstName V3
SYMATTR Value PULSE(5 0 0.6m 1u 1u 900u 1m)
SYMBOL cap -144 224 R0
SYMATTR InstName C3
SYMATTR Value .1µ
SYMBOL LED 560 -48 R270
WINDOW 0 32 90 VTop 0
WINDOW 3 0 32 VBottom 0
WINDOW 123 -59 32 VTop 0
SYMATTR InstName D2-D8
SYMATTR Value LXHL-BW02
SYMATTR Value2 N=7
SYMATTR Description Diode
SYMATTR Type diode
SYMBOL cap -80 -112 R0
SYMATTR InstName C4
SYMATTR Value 1µ
SYMBOL cap -208 96 R0
SYMATTR InstName C5
SYMATTR Value 1µ
SYMBOL pmos 336 -16 M270
WINDOW 0 55 45 VTop 0
WINDOW 3 -14 67 VLeft 0
SYMATTR InstName Q1
SYMATTR Value FDS4685
SYMBOL res 480 -32 R0
SYMATTR InstName R2
SYMATTR Value 301K
SYMBOL res 480 208 R0
SYMATTR InstName R3
SYMATTR Value 10K
SYMBOL res 656 -32 R0
SYMATTR InstName R4
SYMATTR Value 59K
SYMBOL pnp 560 192 R180
WINDOW 0 1 72 Right 0
WINDOW 3 22 -1 Right 0
SYMATTR InstName Q2
SYMATTR Value 2N3906
TEXT 632 312 Left 0 !.tran 5m startup
TEXT 368 -176 Bottom 0 ;LT3496 - Triple Output LED Driver in Buck Mode\nInput: 42V       Output: 7 LEDs @ 500mA
TEXT -288 472 Left 0 ;Note:\n  If the simulation model is not found please update with the "Sync Release" command from the "Tools" menu.\n  It remains the customer's responsibility to verify proper and reliable operation in the actual application.\n  Component substitution and printed circuit board layout may significantly affect circuit performance or reliability.\n  Contact your local sales representative for assistance. This circuit is distributed to customers only for use with LTC parts.\n  Copyright © 2008 Linear Technology Inc. All rights reserved.
