Version 4
SHEET 1 2892 1836
WIRE 1344 1264 1344 1232
WIRE 1344 1376 1344 1344
WIRE 1456 1232 1344 1232
WIRE 1456 1280 1456 1232
WIRE 1456 1376 1456 1344
WIRE 1536 1232 1456 1232
WIRE 1536 1360 1536 1232
WIRE 1536 1488 1536 1360
WIRE 1568 1232 1536 1232
WIRE 1616 1360 1536 1360
WIRE 1616 1488 1536 1488
WIRE 1680 1232 1648 1232
WIRE 1680 1280 1680 1232
WIRE 1760 1600 1760 1568
WIRE 1840 1280 1840 1232
WIRE 1936 1232 1840 1232
WIRE 1936 1248 1936 1232
WIRE 1936 1328 1936 1312
WIRE 1936 1488 1904 1488
WIRE 1936 1504 1936 1488
WIRE 1936 1600 1936 1584
WIRE 2016 1232 1936 1232
WIRE 2048 1488 1936 1488
WIRE 2144 1232 2080 1232
WIRE 2144 1280 2144 1232
WIRE 2144 1376 2144 1344
WIRE 2144 1488 2112 1488
WIRE 2144 1488 2144 1440
FLAG 1760 1600 0
FLAG 1344 1376 0
FLAG 1936 1328 0
FLAG 1936 1600 0
FLAG 1936 1232 OUT
FLAG 1456 1376 0
FLAG 1344 1232 IN
SYMBOL ind 1552 1248 R270
WINDOW 0 32 56 VTop 0
WINDOW 3 5 56 VBottom 0
SYMATTR InstName L1
SYMATTR Value 22µ
SYMATTR SpiceLine Rser=0.71
SYMBOL VOLTAGE 1344 1248 R0
WINDOW 0 22 20 Left 0
WINDOW 123 0 0 Left 0
WINDOW 39 0 0 Left 0
SYMATTR InstName V1
SYMATTR Value 3.6
SYMBOL cap 1920 1248 R0
SYMATTR InstName C1
SYMATTR Value .22µ
SYMATTR SpiceLine Rser=10m
SYMBOL res 1920 1488 R0
SYMATTR InstName R1
SYMATTR Value 10
SYMBOL LED 2016 1248 R270
WINDOW 0 72 32 VTop 0
WINDOW 3 0 32 VBottom 0
SYMATTR InstName D1
SYMATTR Value NSPW500BS
SYMATTR Description Diode
SYMATTR Type diode
SYMBOL LED 2128 1280 R0
WINDOW 0 29 8 Left 0
WINDOW 3 27 67 Left 0
SYMATTR InstName D2
SYMATTR Value NSPW500BS
SYMATTR Description Diode
SYMATTR Type diode
SYMBOL LED 2128 1376 R0
WINDOW 0 29 8 Left 0
WINDOW 3 27 67 Left 0
SYMATTR InstName D3
SYMATTR Value NSPW500BS
SYMATTR Description Diode
SYMATTR Type diode
SYMBOL LED 2112 1472 R90
WINDOW 0 0 32 VBottom 0
WINDOW 3 72 32 VTop 0
SYMATTR InstName D4
SYMATTR Value NSPW500BS
SYMATTR Description Diode
SYMATTR Type diode
SYMBOL PowerProducts\\LT3465A 1760 1424 R0
SYMATTR InstName U1
SYMBOL cap 1440 1280 R0
SYMATTR InstName C2
SYMATTR Value 1µ
SYMATTR SpiceLine Rser=10m
TEXT 2072 1608 Left 0 !.tran .15m startup
TEXT 1240 1632 Left 0 ;Note:\n  If the simulation model is not found please update with the "Sync Release" command from the "Tools" menu.\n  It remains the customer's responsibility to verify proper and reliable operation in the actual application.\n  Component substitution and printed circuit board layout may significantly affect circuit performance or reliability.\n  Contact your local sales representative for assistance. This circuit is distributed to customers only for use with LTC parts.\n  Copyright © 2006 Linear Technology Inc. All rights reserved.
TEXT 1768 1136 Bottom 0 ;LT3465A -   2.4MHz White LED Driver with Built-in Schottky\nInput: 3.6V     Output: 20mA through four series white LEDs
