Version 4
SHEET 1 1092 680
WIRE -208 -16 -304 -16
WIRE -48 -16 -208 -16
WIRE 80 -16 -48 -16
WIRE 208 -16 80 -16
WIRE 336 -16 272 -16
WIRE 448 -16 400 -16
WIRE -304 16 -304 -16
WIRE -48 16 -48 -16
WIRE 80 16 80 -16
WIRE 208 16 208 -16
WIRE 272 16 272 -16
WIRE 272 16 256 16
WIRE 448 16 448 -16
WIRE -208 80 -208 -16
WIRE -192 80 -208 80
WIRE -96 80 -112 80
WIRE 272 96 256 96
WIRE -304 112 -304 96
WIRE 208 128 208 96
WIRE 208 128 128 128
WIRE 272 128 272 96
WIRE 448 128 448 80
WIRE -208 176 -208 80
WIRE -96 176 -208 176
WIRE 16 256 16 240
FLAG 448 -16 OUT
FLAG -304 112 0
FLAG 16 256 0
FLAG 272 128 0
FLAG 448 128 0
FLAG -304 -16 IN
SYMBOL voltage -304 0 R0
WINDOW 123 0 0 Left 0
WINDOW 39 0 0 Left 0
SYMATTR InstName V1
SYMATTR Value 3V
SYMBOL ind2 192 0 R0
WINDOW 0 -1 40 Right 0
WINDOW 3 -3 69 Right 0
SYMATTR InstName L1
SYMATTR Value 10µ
SYMBOL ind2 272 112 R180
WINDOW 0 -3 67 Right 0
WINDOW 3 -4 44 Right 0
SYMATTR InstName L2
SYMATTR Value 1.04m
SYMBOL diode 336 0 R270
WINDOW 0 42 29 VTop 0
WINDOW 3 0 32 VBottom 0
SYMATTR InstName D1
SYMBOL cap 432 16 R0
SYMATTR InstName C1
SYMATTR Value .1µ
SYMBOL res -208 96 R270
WINDOW 0 32 56 VTop 0
WINDOW 3 0 56 VBottom 0
SYMATTR InstName R1
SYMATTR Value 100K
SYMBOL PowerProducts\\LT3484-0 16 128 R0
SYMATTR InstName U1
TEXT 192 -40 Left 0 !K1 L1 L2 1
TEXT 190 210 Left 0 !.tran 10m startup
TEXT -472 272 Left 0 ;Note:\n  If the simulation model is not found please update with the "Sync Release" command from the "Tools" menu.\n  It remains the customer's responsibility to verify proper and reliable operation in the actual application.\n  Component substitution and printed circuit board layout may significantly affect circuit performance or reliability.\n  Contact your local sales representative for assistance. This circuit is distributed to customers only for use with LTC parts.\n  Copyright © 2006 Linear Technology Inc. All rights reserved.
TEXT 104 -64 Bottom 0 ;LT3484-0 - Photoflash Capacitor Charger\nInput: 3V   Output: 320V
