Version 4
SHEET 1 1212 680
WIRE 144 16 48 16
WIRE 336 16 208 16
WIRE -64 96 -176 96
WIRE -48 96 -64 96
WIRE 48 96 48 16
WIRE 48 96 32 96
WIRE 64 96 48 96
WIRE 336 96 336 16
WIRE 336 96 320 96
WIRE 352 96 336 96
WIRE 432 96 416 96
WIRE -176 112 -176 96
WIRE -64 160 -64 96
WIRE 64 160 -64 160
WIRE 448 160 320 160
WIRE 480 160 448 160
WIRE 560 160 480 160
WIRE 560 176 560 160
WIRE 480 192 480 160
WIRE -176 208 -176 192
WIRE -64 224 -64 160
WIRE 64 224 -64 224
WIRE 352 224 320 224
WIRE 448 224 448 160
WIRE 448 224 432 224
WIRE 480 272 480 256
WIRE 560 272 560 256
WIRE -64 288 -64 224
WIRE 64 288 -64 288
WIRE 352 288 320 288
FLAG -176 208 0
FLAG 352 288 0
FLAG 432 96 0
FLAG 480 272 0
FLAG 560 272 0
FLAG 560 160 OUT
FLAG -176 96 IN
SYMBOL voltage -176 96 R0
SYMATTR InstName V1
SYMATTR Value 3.6
SYMBOL ind -64 112 R270
WINDOW 0 32 56 VTop 0
WINDOW 3 5 56 VBottom 0
SYMATTR InstName L1
SYMATTR Value 15µ
SYMATTR SpiceLine Rser=.58 Rpar=3K
SYMBOL cap 416 80 R90
WINDOW 0 0 32 VBottom 0
WINDOW 3 32 32 VTop 0
SYMATTR InstName C1
SYMATTR Value .47µ
SYMBOL res 448 208 R90
WINDOW 0 0 56 VBottom 0
WINDOW 3 32 56 VTop 0
SYMATTR InstName R1
SYMATTR Value 2.05Meg
SYMBOL cap 464 192 R0
SYMATTR InstName C2
SYMATTR Value 4.7µ
SYMBOL LT3494A 192 192 R0
SYMATTR InstName U1
SYMBOL res 544 160 R0
SYMATTR InstName Rload
SYMATTR Value 555
SYMBOL schottky 144 32 R270
WINDOW 0 32 32 VTop 0
WINDOW 3 0 32 VBottom 0
SYMATTR InstName D1
SYMATTR Value MBR0520L
SYMATTR Description Diode
SYMATTR Type diode
TEXT 424 320 Left 0 !.tran 1m startup
TEXT -360 368 Left 0 ;Note:\n  If the simulation model is not found please update with the "Sync Release" command from the "Tools" menu.\n  It remains the customer's responsibility to verify proper and reliable operation in the actual application.\n  Component substitution and printed circuit board layout may significantly affect circuit performance or reliability\n  Contact your local sales representative for assistance. This circuit is distributed to customers only for use with LTC parts\n  Copyright © 2006 Linear Technology Inc. All rights reserved.
TEXT 248 -40 Bottom 0 ;LT3494A - 380mA, µPower Low Noise Boost Converter With Output Disconnect\nInput: 3.6V       Output: 15V@27mA
