Version 4
SHEET 1 1588 1132
WIRE 128 592 128 464
WIRE 128 816 128 672
WIRE 256 464 128 464
WIRE 256 608 256 464
WIRE 256 816 256 672
WIRE 368 736 368 720
WIRE 368 816 368 800
WIRE 384 464 256 464
WIRE 384 624 384 464
WIRE 432 624 384 624
WIRE 432 720 368 720
WIRE 512 464 384 464
WIRE 512 560 512 464
WIRE 560 464 512 464
WIRE 592 816 592 784
WIRE 672 464 640 464
WIRE 672 560 672 464
WIRE 720 464 672 464
WIRE 848 464 784 464
WIRE 848 528 848 464
WIRE 848 672 752 672
WIRE 848 672 848 608
WIRE 848 704 848 672
WIRE 848 816 848 784
WIRE 960 464 848 464
WIRE 960 528 960 464
WIRE 960 672 848 672
WIRE 960 672 960 592
WIRE 1056 464 960 464
WIRE 1056 608 1056 464
WIRE 1056 816 1056 672
WIRE 1168 464 1056 464
WIRE 1168 592 1168 464
WIRE 1168 816 1168 672
FLAG 1168 464 OUT
FLAG 848 816 0
FLAG 1056 816 0
FLAG 1168 816 0
FLAG 592 816 0
FLAG 128 816 0
FLAG 256 816 0
FLAG 368 816 0
FLAG 128 464 IN
SYMBOL VOLTAGE 128 576 R0
SYMATTR InstName V1
SYMATTR Value 5V
SYMBOL RES 832 512 R0
SYMATTR InstName R1
SYMATTR Value 113K
SYMBOL RES 832 688 R0
SYMATTR InstName R2
SYMATTR Value 13.3K
SYMBOL IND 544 480 R270
WINDOW 0 32 56 VTop 0
WINDOW 3 5 56 VBottom 0
SYMATTR InstName L1
SYMATTR Value 10µ
SYMATTR SpiceLine Rser=0.182
SYMBOL LOAD2 1168 592 R0
WINDOW 39 25 112 Left 0
SYMATTR SpiceLine load
SYMATTR InstName Iload
SYMATTR Value 300m
SYMBOL SCHOTTKY 720 480 R270
WINDOW 0 32 32 VTop 0
WINDOW 3 0 32 VBottom 0
SYMATTR InstName D1
SYMATTR Value MBR0520L
SYMBOL cap 352 736 R0
SYMATTR InstName C3
SYMATTR Value .001µ
SYMBOL cap 944 528 R0
SYMATTR InstName C4
SYMATTR Value 10p
SYMBOL cap 1040 608 R0
SYMATTR InstName C2
SYMATTR Value 4.7µ
SYMBOL cap 240 608 R0
SYMATTR InstName C1
SYMATTR Value 2.2µ
SYMBOL PowerProducts\\LT3467A 592 672 R0
SYMATTR InstName U2
TEXT 920 848 Left 0 !.tran .5m startup
TEXT 600 416 Bottom 0 ;LT3467A - 1.1A, 2.1MHz, Step-up DC/DC Converter With Integrated Soft-Start\nInput: 5V       Output: 12V @ 300mA
TEXT 88 856 Left 0 ;Note:\n  If the simulation model is not found please update with the "Sync Release" command from the "Tools" menu.\n  It remains the customer's responsibility to verify proper and reliable operation in the actual application.\n  Component substitution and printed circuit board layout may significantly affect circuit performance or reliability\n  Contact your local sales representative for assistance. This circuit is distributed to customers only for use with LTC parts\n  Copyright © 2006 Linear Technology Inc. All rights reserved.
