Version 4
SHEET 1 1792 724
WIRE 608 -144 32 -144
WIRE 720 -144 608 -144
WIRE 720 -128 720 -144
WIRE 32 -80 32 -144
WIRE 48 -80 32 -80
WIRE 144 -80 128 -80
WIRE 240 -80 144 -80
WIRE 368 -80 336 -80
WIRE 464 -80 432 -80
WIRE 720 -48 720 -64
WIRE 464 0 352 0
WIRE 608 0 608 -144
WIRE 608 0 528 0
WIRE 32 16 32 -80
WIRE 144 16 144 -80
WIRE 256 16 256 -32
WIRE -160 80 -240 80
WIRE -64 80 -160 80
WIRE -32 80 -64 80
WIRE 352 80 352 0
WIRE 352 80 320 80
WIRE 368 80 352 80
WIRE 768 80 448 80
WIRE 864 80 768 80
WIRE -240 96 -240 80
WIRE -160 96 -160 80
WIRE 608 96 608 0
WIRE 768 96 768 80
WIRE 864 96 864 80
WIRE -64 144 -64 80
WIRE -32 144 -64 144
WIRE 560 144 320 144
WIRE -240 192 -240 176
WIRE -160 192 -160 160
WIRE 560 192 560 144
WIRE 608 192 608 176
WIRE 608 192 560 192
WIRE 768 192 768 160
WIRE 864 192 864 176
WIRE -64 208 -128 208
WIRE -32 208 -64 208
WIRE 336 208 320 208
WIRE 432 208 416 208
WIRE 512 208 496 208
WIRE 608 208 608 192
WIRE -128 224 -128 208
WIRE -64 272 -64 208
WIRE -32 272 -64 272
WIRE 608 304 608 288
WIRE -128 320 -128 288
WIRE -64 336 -64 272
WIRE -32 336 -64 336
WIRE 368 336 320 336
WIRE 368 368 368 336
WIRE 144 400 144 384
WIRE 368 464 368 448
FLAG 144 400 0
FLAG 864 192 0
FLAG -240 192 0
FLAG 368 464 0
FLAG -128 320 0
FLAG 768 192 0
FLAG -160 192 0
FLAG 608 304 0
FLAG 464 -80 0
FLAG 720 -48 0
FLAG 512 208 0
SYMBOL PowerProducts\\LT3496 144 208 R0
SYMATTR InstName U1
SYMBOL res 32 -64 R270
WINDOW 0 32 56 VTop 0
WINDOW 3 0 56 VBottom 0
SYMATTR InstName R1
SYMATTR Value .5
SYMBOL ind 464 96 M270
WINDOW 0 32 56 VTop 0
WINDOW 3 5 56 VBottom 0
SYMATTR InstName L1
SYMATTR Value 15µ
SYMATTR SpiceLine Ipk=1.72 Rser=0.07 Rpar=0 Cpar=0
SYMBOL schottky 464 -16 M90
WINDOW 0 0 32 VBottom 0
WINDOW 3 32 32 VTop 0
SYMATTR InstName D1
SYMATTR Value PMEG6010AED
SYMATTR Description Diode
SYMATTR Type diode
SYMBOL cap 432 224 R270
WINDOW 0 32 32 VTop 0
WINDOW 3 0 32 VBottom 0
WINDOW 39 0 32 VBottom 0
SYMATTR InstName C1
SYMATTR Value 1000p
SYMBOL voltage 864 80 R0
WINDOW 123 0 0 Left 0
WINDOW 39 0 0 Left 0
SYMATTR InstName V1
SYMATTR Value 12
SYMBOL voltage -240 80 R0
SYMATTR InstName V2
SYMATTR Value 5
SYMBOL voltage 368 352 R0
WINDOW 123 0 0 Left 0
WINDOW 39 0 0 Left 0
SYMATTR InstName V3
SYMATTR Value PULSE(5 0 0.6m 1u 1u 900u 1m)
SYMBOL cap -144 224 R0
SYMATTR InstName C2
SYMATTR Value .1µ
SYMBOL LED 368 -64 R270
WINDOW 0 32 90 VTop 0
WINDOW 3 0 32 VBottom 0
WINDOW 123 -31 32 VBottom 0
SYMATTR InstName D2-D8
SYMATTR Value LXHL-BW02
SYMATTR Value2 N=7
SYMATTR Description Diode
SYMATTR Type diode
SYMBOL cap 752 96 R0
SYMATTR InstName C3
SYMATTR Value 1µ
SYMBOL cap -176 96 R0
SYMATTR InstName C4
SYMATTR Value 1µ
SYMBOL pmos 336 -32 M270
WINDOW 0 54 45 VTop 0
WINDOW 3 -17 73 VLeft 0
SYMATTR InstName Q1
SYMATTR Value FDS4685
SYMBOL res 592 80 R0
SYMATTR InstName R2
SYMATTR Value 7.15Meg
SYMBOL res 592 192 R0
SYMATTR InstName R3
SYMATTR Value 191K
SYMBOL cap 704 -128 R0
SYMATTR InstName C5
SYMATTR Value 1µ
SYMBOL res 320 224 R270
WINDOW 0 32 56 VTop 0
WINDOW 3 0 56 VBottom 0
SYMATTR InstName R4
SYMATTR Value 18.2K
TEXT 696 360 Left 0 !.tran 5m startup
TEXT 368 -152 Bottom 0 ;LT3496 - Triple Output LED Driver In Boost Mode\nInput: 12V       Output: 7 LEDs @ 200mA
TEXT -264 480 Left 0 ;Note:\n  If the simulation model is not found please update with the "Sync Release" command from the "Tools" menu.\n  It remains the customer's responsibility to verify proper and reliable operation in the actual application.\n  Component substitution and printed circuit board layout may significantly affect circuit performance or reliability.\n  Contact your local sales representative for assistance. This circuit is distributed to customers only for use with LTC parts.\n  Copyright © 2008 Linear Technology Inc. All rights reserved.
