Version 4
SHEET 1 1280 680
WIRE -544 -448 -640 -448
WIRE -480 -448 -544 -448
WIRE -384 -448 -416 -448
WIRE -288 -448 -384 -448
WIRE -640 -432 -640 -448
WIRE -544 -432 -544 -448
WIRE -384 -432 -384 -448
WIRE -288 -432 -288 -448
WIRE -544 -336 -544 -368
WIRE -384 -336 -384 -368
WIRE -288 -336 -288 -352
WIRE -864 -288 -960 -288
WIRE -784 -288 -864 -288
WIRE -752 -288 -784 -288
WIRE -640 -288 -640 -368
WIRE -640 -288 -672 -288
WIRE -384 -288 -480 -288
WIRE -288 -288 -384 -288
WIRE -176 -288 -288 -288
WIRE -960 -272 -960 -288
WIRE -864 -272 -864 -288
WIRE -384 -272 -384 -288
WIRE -288 -272 -288 -288
WIRE -176 -272 -176 -288
WIRE -640 -240 -640 -288
WIRE -480 -240 -480 -288
WIRE -384 -192 -384 -208
WIRE -960 -176 -960 -192
WIRE -864 -176 -864 -208
WIRE -176 -176 -176 -192
WIRE -784 -160 -784 -288
WIRE -704 -160 -784 -160
WIRE -288 -160 -288 -192
WIRE -288 -160 -416 -160
WIRE -288 -144 -288 -160
WIRE -288 -48 -288 -64
WIRE -784 -32 -784 -160
WIRE -704 -32 -784 -32
WIRE -384 -32 -416 -32
WIRE -384 -16 -384 -32
WIRE -560 64 -560 48
WIRE -384 80 -384 64
FLAG -288 -48 0
FLAG -384 80 0
FLAG -560 64 0
FLAG -960 -176 0
FLAG -384 -192 0
FLAG -176 -176 0
FLAG -176 -288 OUT2
FLAG -960 -288 IN
FLAG -864 -176 0
FLAG -544 -336 0
FLAG -384 -336 0
FLAG -288 -336 0
FLAG -288 -448 OUT3
SYMBOL res -304 -160 R0
SYMATTR InstName R1
SYMATTR Value 26.7K
SYMBOL res -400 -32 R0
SYMATTR InstName R2
SYMATTR Value 63.4K
SYMBOL ind -768 -272 R270
WINDOW 0 32 56 VTop 2
WINDOW 3 5 56 VBottom 2
SYMATTR InstName L1
SYMATTR Value 33µ
SYMBOL voltage -960 -288 R0
WINDOW 123 0 0 Left 2
WINDOW 39 0 0 Left 2
SYMATTR InstName V1
SYMATTR Value 4
SYMBOL cap -400 -272 R0
WINDOW 3 29 52 Left 2
SYMATTR Value 1µ
SYMATTR InstName C1
SYMATTR SpiceLine Rser=0.007
SYMBOL res -304 -288 R0
SYMATTR InstName R3
SYMATTR Value 475K
SYMBOL PowerProducts\\LT3466-1 -560 -96 R0
SYMATTR InstName U1
SYMBOL cap -880 -272 R0
WINDOW 3 29 52 Left 2
SYMATTR Value 1µ
SYMATTR InstName C2
SYMBOL cap -656 -432 R0
SYMATTR InstName C3
SYMATTR Value 0.1µ
SYMBOL cap -400 -432 R0
WINDOW 3 29 52 Left 2
SYMATTR Value 1µ
SYMATTR InstName C4
SYMATTR SpiceLine Rser=0.007
SYMBOL schottky -416 -464 R90
WINDOW 0 0 32 VBottom 2
WINDOW 3 32 32 VTop 2
SYMATTR InstName D1
SYMATTR Value BAT54
SYMATTR Description Diode
SYMATTR Type diode
SYMBOL schottky -560 -432 R0
SYMATTR InstName D2
SYMATTR Value BAT54
SYMATTR Description Diode
SYMATTR Type diode
SYMBOL res -192 -288 R0
SYMATTR InstName Rload2
SYMATTR Value 1.5K
SYMBOL res -304 -448 R0
SYMATTR InstName Rload3
SYMATTR Value 1.5K
TEXT -264 72 Left 2 !.tran 1.5m startup
TEXT -240 -464 Left 2 ;-15V @ 10mA
TEXT -128 -304 Left 2 ;+15V @ 10mA
TEXT -264 -8 Left 2 ;Only Ch2 of LT3466-1 is simulated\nFor Ch1 simulation, refer to LT3466
TEXT -552 -488 Bottom 2 ;LT3466-1 - White LED Driver and Boost Converter\nLi-Ion to ±15V TFT LCD Bias Supply\nInput: 3V to 14V       Output: +15V @ 10mA & -15V @ 10mA
TEXT -1128 88 Left 2 ;Note:\n  If the simulation model is not found please update with the "Sync Release" command from the "Tools" menu.\n  It remains the customer's responsibility to verify proper and reliable operation in the actual application.\n  Component substitution and printed circuit board layout may significantly affect circuit performance or reliability.\n  Contact your local sales representative for assistance. This circuit is distributed to customers only for use with LTC parts.\n  Copyright © 2012 Linear Technology Inc. All rights reserved.
