Version 4
SHEET 1 2868 1456
WIRE 1648 880 1552 880
WIRE 1664 880 1648 880
WIRE 1760 880 1744 880
WIRE 1792 880 1760 880
WIRE 1888 880 1856 880
WIRE 2016 880 1888 880
WIRE 1552 896 1552 880
WIRE 2016 896 2016 880
WIRE 1760 944 1760 880
WIRE 1888 944 1888 880
WIRE 2016 976 2016 960
WIRE 1552 992 1552 976
WIRE 1648 1008 1648 880
WIRE 1680 1008 1648 1008
WIRE 2000 1008 1968 1008
WIRE 2112 1008 2000 1008
WIRE 2208 1008 2112 1008
WIRE 2112 1024 2112 1008
WIRE 2208 1024 2208 1008
WIRE 2000 1040 2000 1008
WIRE 1648 1088 1648 1008
WIRE 1680 1088 1648 1088
WIRE 2112 1120 2112 1088
WIRE 2208 1120 2208 1104
WIRE 1648 1168 1648 1088
WIRE 1680 1168 1648 1168
WIRE 2000 1168 2000 1120
WIRE 2000 1168 1968 1168
WIRE 1824 1248 1824 1232
FLAG 2208 1008 OUT
FLAG 1824 1248 0
FLAG 1552 992 0
FLAG 1552 880 IN
FLAG 2016 976 0
FLAG 2112 1120 0
FLAG 2208 1120 0
SYMBOL RES 1984 1024 R0
SYMATTR InstName R1
SYMATTR Value 909K
SYMBOL VOLTAGE 1552 880 R0
WINDOW 123 0 0 Left 0
SYMATTR InstName V1
SYMATTR Value 3.6
SYMBOL ind 1648 896 R270
WINDOW 0 32 56 VTop 0
WINDOW 3 5 56 VBottom 0
SYMATTR InstName L1
SYMATTR Value 10µ
SYMATTR SpiceLine Rser=.5
SYMBOL cap 2000 896 R0
SYMATTR InstName C1
SYMATTR Value 2.2µ
SYMATTR SpiceLine Rser=10m
SYMBOL cap 2096 1024 R0
SYMATTR InstName C2
SYMATTR Value 1µ
SYMATTR SpiceLine Rser=10m
SYMBOL schottky 1792 896 R270
WINDOW 0 32 32 VTop 0
WINDOW 3 0 32 VBottom 0
SYMATTR InstName D1
SYMATTR Value MBR0520L
SYMATTR Description Diode
SYMATTR Type diode
SYMBOL res 2192 1008 R0
SYMATTR InstName Rload
SYMATTR Value 533
SYMBOL PowerProducts\\LT3495B-1 1824 1088 R0
SYMATTR InstName U1
TEXT 2032 1208 Left 0 !.tran 1m startup
TEXT 1832 832 Bottom 0 ;LT3495B-1, µPower Low Noise Boost Converter with Output Disconnect\nInput: 3.6V       Output: 16V @ 30mA
TEXT 1216 1264 Left 0 ;Note:\n  If the simulation model is not found please update with the "Sync Release" command from the "Tools" menu.\n  It remains the customer's responsibility to verify proper and reliable operation in the actual application.\n  Component substitution and printed circuit board layout may significantly affect circuit performance or reliability.\n  Contact your local sales representative for assistance. This circuit is distributed to customers only for use with LTC parts.\n  Copyright © 2009 Linear Technology Inc. All rights reserved.
