Version 4
SHEET 1 5868 1960
WIRE 1392 1280 1280 1280
WIRE 1472 1280 1392 1280
WIRE 1568 1280 1472 1280
WIRE 1760 1280 1696 1280
WIRE 1840 1280 1824 1280
WIRE 1856 1280 1840 1280
WIRE 1952 1280 1936 1280
WIRE 2032 1280 1952 1280
WIRE 2144 1280 2032 1280
WIRE 1280 1296 1280 1280
WIRE 1568 1296 1568 1280
WIRE 1696 1296 1696 1280
WIRE 2032 1296 2032 1280
WIRE 2144 1296 2144 1280
WIRE 1392 1312 1392 1280
WIRE 1840 1360 1840 1280
WIRE 1840 1360 1760 1360
WIRE 1280 1392 1280 1376
WIRE 1392 1392 1392 1376
WIRE 2032 1392 2032 1360
WIRE 2144 1392 2144 1376
WIRE 1856 1408 1808 1408
WIRE 1952 1408 1952 1280
WIRE 1952 1408 1856 1408
WIRE 1856 1424 1856 1408
WIRE 1952 1424 1952 1408
WIRE 1472 1440 1472 1280
WIRE 1504 1440 1472 1440
WIRE 1808 1440 1808 1408
WIRE 1808 1440 1760 1440
WIRE 1856 1520 1856 1488
WIRE 1856 1520 1760 1520
WIRE 1952 1520 1952 1504
WIRE 1952 1520 1856 1520
WIRE 1952 1536 1952 1520
WIRE 1632 1600 1632 1568
WIRE 1952 1632 1952 1616
FLAG 1632 1600 0
FLAG 1280 1392 0
FLAG 2144 1392 0
FLAG 1392 1392 0
FLAG 1952 1632 0
FLAG 2032 1392 0
FLAG 2144 1280 OUT
FLAG 1280 1280 IN
SYMBOL VOLTAGE 1280 1280 R0
WINDOW 123 0 0 Left 0
WINDOW 39 24 132 Left 0
SYMATTR InstName V1
SYMATTR Value 12
SYMBOL cap 1376 1312 R0
SYMATTR InstName C1
SYMATTR Value 1µ
SYMBOL cap 1824 1264 R90
WINDOW 0 0 32 VBottom 0
WINDOW 3 32 32 VTop 0
SYMATTR InstName C2
SYMATTR Value .22µ
SYMBOL cap 1840 1424 R0
SYMATTR InstName C3
SYMATTR Value 22p
SYMBOL cap 2016 1296 R0
SYMATTR InstName C4
SYMATTR Value 22µ
SYMATTR SpiceLine Rser=.025
SYMBOL ind 1840 1296 R270
WINDOW 0 32 56 VTop 0
WINDOW 3 5 56 VBottom 0
SYMATTR InstName L1
SYMATTR Value 33µ
SYMATTR SpiceLine Rser=.1 Rpar=10K
SYMBOL res 1936 1408 R0
SYMATTR InstName R1
SYMATTR Value 604K
SYMBOL res 1936 1520 R0
SYMATTR InstName R2
SYMATTR Value 200K
SYMBOL PowerProducts\\LT3470A 1632 1440 R0
SYMATTR InstName U1
SYMBOL res 2128 1280 R0
SYMATTR InstName Rload
SYMATTR Value 20
TEXT 2072 1560 Left 0 !.tran 1.4m startup
TEXT 1768 1184 Center 0 ;LT3470A - 40V µPower Buck Regulator With Integrated Boost and Catch Diodes\nInput: 12V     Output: 5V @ 250mA
TEXT 1152 1648 Left 0 ;Note:\n  If the simulation model is not found please update with the "Sync Release" command from the "Tools" menu.\n  It remains the customer's responsibility to verify proper and reliable operation in the actual application.\n  Component substitution and printed circuit board layout may significantly affect circuit performance or reliability\n  Contact your local sales representative for assistance. This circuit is distributed to customers only for use with LTC parts\n  Copyright © 2009 Linear Technology Inc. All rights reserved.
