Version 4
SHEET 1 1268 812
WIRE 144 -96 -64 -96
WIRE 432 -96 304 -96
WIRE 544 -96 432 -96
WIRE 672 -96 608 -96
WIRE -64 -80 -64 -96
WIRE 144 -80 144 -96
WIRE 304 -80 304 -96
WIRE 432 -80 432 -96
WIRE 432 0 432 -16
WIRE 432 0 384 0
WIRE 544 0 432 0
WIRE 672 0 672 -96
WIRE 672 0 624 0
WIRE 768 0 672 0
WIRE 832 0 768 0
WIRE 928 0 832 0
WIRE -64 16 -64 0
WIRE 672 16 672 0
WIRE 832 16 832 0
WIRE 928 16 928 0
WIRE 432 80 432 64
WIRE 672 112 672 96
WIRE 672 112 384 112
WIRE 832 112 832 80
WIRE 928 112 928 96
WIRE 672 128 672 112
WIRE -64 224 -128 224
WIRE 64 224 16 224
WIRE 672 224 672 208
WIRE 768 288 768 0
WIRE -112 336 -128 336
WIRE -16 336 -32 336
WIRE 64 336 48 336
WIRE 704 336 384 336
WIRE -48 448 -128 448
WIRE 64 448 16 448
WIRE 448 448 384 448
WIRE 544 448 448 448
WIRE 768 448 768 384
WIRE 768 448 624 448
WIRE 880 448 768 448
WIRE 448 464 448 448
WIRE 768 464 768 448
WIRE 880 464 880 448
WIRE 224 512 224 496
WIRE 448 560 448 544
WIRE 768 560 768 528
WIRE 880 560 880 544
FLAG -64 16 0
FLAG 224 512 0
FLAG 672 224 0
FLAG 432 80 0
FLAG -64 -96 IN
FLAG 928 0 OUT1
FLAG 880 448 OUT2
FLAG 880 560 0
FLAG 768 560 0
FLAG 448 560 0
FLAG -128 448 0
FLAG -128 336 0
FLAG -128 224 0
FLAG 928 112 0
FLAG 832 112 0
SYMBOL res 656 0 R0
SYMATTR InstName R1
SYMATTR Value 42.2K
SYMBOL res 656 112 R0
SYMATTR InstName R2
SYMATTR Value 8.06K
SYMBOL res 640 464 M270
WINDOW 0 32 56 VTop 0
WINDOW 3 0 56 VBottom 0
SYMATTR InstName R3
SYMATTR Value 24.9K
SYMBOL res 432 448 R0
SYMATTR InstName R4
SYMATTR Value 8.06K
SYMBOL ind 528 16 R270
WINDOW 0 32 56 VTop 0
WINDOW 3 5 56 VBottom 0
SYMATTR InstName L1
SYMATTR Value 6.8µ
SYMATTR SpiceLine Rpar=2K
SYMBOL cap 416 -80 R0
WINDOW 3 24 56 Left 0
SYMATTR Value .47µ
SYMATTR InstName C1
SYMBOL voltage -64 -96 R0
WINDOW 123 0 0 Left 0
WINDOW 39 0 0 Left 0
SYMATTR InstName V1
SYMATTR Value 24
SYMBOL res 32 208 R90
WINDOW 3 32 56 VTop 0
WINDOW 0 0 56 VBottom 0
SYMATTR Value 53.6K
SYMATTR InstName R5
SYMBOL res -16 320 R90
WINDOW 0 0 56 VBottom 0
WINDOW 3 32 56 VTop 0
SYMATTR InstName R6
SYMATTR Value 40.2K
SYMBOL cap 16 432 R90
WINDOW 0 0 32 VBottom 0
WINDOW 3 32 32 VTop 0
SYMATTR InstName C2
SYMATTR Value .001µ
SYMBOL cap 48 320 R90
WINDOW 0 0 32 VBottom 0
WINDOW 3 32 32 VTop 0
SYMATTR InstName C3
SYMATTR Value 330p
SYMBOL schottky 416 64 M180
WINDOW 0 40 32 Left 0
WINDOW 3 27 0 Left 0
SYMATTR InstName D1
SYMATTR Value MBRS340
SYMATTR Description Diode
SYMATTR Type diode
SYMBOL cap 816 16 R0
SYMATTR Value 22µ
SYMATTR InstName C4
SYMBOL npn 704 288 R0
SYMATTR InstName Q1
SYMATTR Value FZT849
SYMBOL cap 752 464 R0
WINDOW 3 26 54 Left 0
SYMATTR Value 22µ
SYMATTR InstName C5
SYMBOL schottky 608 -112 R90
WINDOW 0 0 32 VBottom 0
WINDOW 3 32 32 VTop 0
SYMATTR InstName D2
SYMATTR Value PMEG4005AEA
SYMATTR Description Diode
SYMATTR Type diode
SYMBOL PowerProducts\\LT3500 224 224 R0
SYMATTR InstName U1
SYMBOL res 912 0 R0
SYMATTR InstName Rload1
SYMATTR Value 5
SYMBOL res 864 448 R0
SYMATTR InstName Rload2
SYMATTR Value 3.3
TEXT 856 264 Left 0 !.tran 500u startup
TEXT 288 -152 Bottom 0 ;LT3500 - Monolithic 2A Step-Down Regulator Plus LDO in DFN-12 package\nInput: 24V       Outputs: 5V@1A and 3.3V@1A
TEXT -200 584 Left 0 ;Note:\n  If the simulation model is not found please update with the "Sync Release" command from the "Tools" menu.\n  It remains the customer's responsibility to verify proper and reliable operation in the actual application.\n  Component substitution and printed circuit board layout may significantly affect circuit performance or reliability.\n  Contact your local sales representative for assistance. This circuit is distributed to customers only for use with LTC parts.\n  Copyright © 2008 Linear Technology Inc. All rights reserved.
