Version 4
SHEET 1 1108 948
WIRE -1312 -224 -1408 -224
WIRE -1216 -224 -1312 -224
WIRE -976 -224 -1216 -224
WIRE -592 -224 -832 -224
WIRE -464 -224 -592 -224
WIRE -1408 -208 -1408 -224
WIRE -1312 -208 -1312 -224
WIRE -1216 -208 -1216 -224
WIRE -592 -208 -592 -224
WIRE -464 -208 -464 -224
WIRE -976 -176 -976 -224
WIRE -832 -176 -832 -224
WIRE -1408 -112 -1408 -128
WIRE -1312 -112 -1312 -144
WIRE -1216 -112 -1216 -128
WIRE -1088 -112 -1216 -112
WIRE -672 -112 -704 -112
WIRE -592 -112 -592 -144
WIRE -464 -112 -464 -128
WIRE -1216 -96 -1216 -112
WIRE -1088 -32 -1120 -32
WIRE -672 -32 -672 -48
WIRE -672 -32 -704 -32
WIRE -576 -32 -672 -32
WIRE -464 -32 -496 -32
WIRE -336 -32 -464 -32
WIRE -240 -32 -336 -32
WIRE -672 -16 -672 -32
WIRE -464 -16 -464 -32
WIRE -1216 0 -1216 -16
WIRE -336 0 -336 -32
WIRE -1088 48 -1120 48
WIRE -672 48 -704 48
WIRE -464 64 -464 48
WIRE -1376 128 -1392 128
WIRE -1120 128 -1120 48
WIRE -1120 128 -1296 128
WIRE -1088 128 -1120 128
WIRE -336 128 -336 80
WIRE -336 128 -704 128
WIRE -336 144 -336 128
WIRE -1120 208 -1120 128
WIRE -1088 208 -1120 208
WIRE -576 208 -704 208
WIRE -368 208 -512 208
WIRE -336 240 -336 224
WIRE -1088 288 -1120 288
WIRE -688 288 -704 288
WIRE -368 288 -368 208
WIRE -368 288 -624 288
WIRE -240 288 -240 -32
WIRE -240 288 -368 288
WIRE -1120 368 -1120 288
WIRE -1088 368 -1120 368
WIRE -576 368 -704 368
WIRE -368 368 -368 288
WIRE -368 368 -512 368
WIRE -1120 448 -1120 368
WIRE -1088 448 -1120 448
WIRE -688 448 -704 448
WIRE -592 448 -608 448
WIRE -1184 496 -1360 496
WIRE -1120 496 -1120 448
WIRE -1120 496 -1184 496
WIRE -1360 512 -1360 496
WIRE -1184 512 -1184 496
WIRE -1120 528 -1120 496
WIRE -1088 528 -1120 528
WIRE -688 528 -704 528
WIRE -592 528 -608 528
WIRE -1280 608 -1296 608
WIRE -1184 608 -1184 592
WIRE -1184 608 -1200 608
WIRE -1088 608 -1184 608
WIRE -688 608 -704 608
WIRE -592 608 -608 608
WIRE -1456 688 -1472 688
WIRE -1360 688 -1360 592
WIRE -1360 688 -1376 688
WIRE -1088 688 -1360 688
WIRE -688 688 -704 688
WIRE -592 688 -608 688
WIRE -896 752 -896 736
FLAG -336 240 0
FLAG -896 752 0
FLAG -1296 608 0
FLAG -464 64 0
FLAG -1472 688 0
FLAG -592 688 0
FLAG -592 448 0
FLAG -592 528 0
FLAG -592 608 0
FLAG -1408 -112 0
FLAG -1120 -32 0
FLAG -1312 -112 0
FLAG -592 -112 0
FLAG -464 -112 0
FLAG -1392 128 0
FLAG -1216 0 0
SYMBOL ind -592 -16 R270
WINDOW 0 32 56 VTop 0
WINDOW 3 5 56 VBottom 0
SYMATTR InstName L1
SYMATTR Value 100µ
SYMATTR SpiceLine Rpar=20K
SYMBOL res -352 -16 R0
SYMATTR InstName R1
SYMATTR Value 93.1K
SYMBOL res -352 128 R0
SYMATTR InstName R2
SYMATTR Value 3.01K
SYMBOL LED -512 192 R90
WINDOW 0 0 6 VLeft 0
WINDOW 3 35 8 VLeft 0
WINDOW 123 59 7 VLeft 0
SYMATTR InstName D1
SYMATTR Value LXHL-BW02
SYMATTR Value2 N=9
SYMATTR Description Diode
SYMATTR Type diode
SYMBOL LED -624 272 R90
WINDOW 0 0 6 VLeft 0
WINDOW 3 35 8 VLeft 0
WINDOW 123 59 7 VLeft 0
SYMATTR InstName D2
SYMATTR Value LXHL-BW02
SYMATTR Value2 N=9
SYMATTR Description Diode
SYMATTR Type diode
SYMBOL LED -512 352 R90
WINDOW 0 0 6 VLeft 0
WINDOW 3 35 8 VLeft 0
WINDOW 123 59 7 VLeft 0
SYMATTR InstName D3
SYMATTR Value LXHL-BW02
SYMATTR Value2 N=9
SYMATTR Description Diode
SYMATTR Type diode
SYMBOL res -1200 496 R0
SYMATTR InstName R3
SYMATTR Value 90.9K
SYMBOL res -1184 592 R90
WINDOW 0 0 56 VBottom 0
WINDOW 3 32 56 VTop 0
SYMATTR InstName R4
SYMATTR Value 49.9K
SYMBOL voltage -1408 -224 R0
SYMATTR InstName V1
SYMATTR Value 48
SYMBOL cap -480 -16 R0
SYMATTR InstName C1
SYMATTR Value 10µ
SYMBOL res -1376 496 R0
SYMATTR InstName R5
SYMATTR Value 10K
SYMBOL res -1360 672 R90
WINDOW 0 0 56 VBottom 0
WINDOW 3 32 56 VTop 0
SYMATTR InstName R6
SYMATTR Value 100K
SYMBOL PowerProducts\\LT3596 -896 256 R0
SYMATTR InstName U1
SYMBOL res -592 672 R90
WINDOW 0 0 56 VBottom 0
WINDOW 3 32 56 VTop 0
SYMATTR InstName R7
SYMATTR Value 33.2K
SYMBOL res -592 432 R90
WINDOW 0 0 56 VBottom 0
WINDOW 3 32 56 VTop 0
SYMATTR InstName R8
SYMATTR Value 20K
SYMBOL res -592 512 R90
WINDOW 0 0 56 VBottom 0
WINDOW 3 32 56 VTop 0
SYMATTR InstName R9
SYMATTR Value 20K
SYMBOL res -592 592 R90
WINDOW 0 0 56 VBottom 0
WINDOW 3 32 56 VTop 0
SYMATTR InstName R10
SYMATTR Value 20K
SYMBOL schottky -688 48 M180
WINDOW 0 26 63 Left 0
WINDOW 3 24 0 Left 0
SYMATTR InstName D4
SYMATTR Value PMEG6010AED
SYMATTR Description Diode
SYMATTR Type diode
SYMBOL cap -688 -112 R0
SYMATTR InstName C2
SYMATTR Value .22µ
SYMBOL cap -1328 -208 R0
SYMATTR InstName C3
SYMATTR Value 4.7µ
SYMBOL cap -608 -208 R0
SYMATTR InstName C4
SYMATTR Value 4.7µ
SYMBOL voltage -464 -224 R0
WINDOW 123 0 0 Left 0
WINDOW 39 0 0 Left 0
SYMATTR InstName V2
SYMATTR Value 5
SYMBOL voltage -1280 128 R90
WINDOW 0 -32 56 VBottom 0
WINDOW 3 32 56 VTop 0
WINDOW 123 74 56 VTop 0
WINDOW 39 53 56 VTop 0
SYMATTR InstName V3
SYMATTR Value PULSE(5 0 1.6m 1u 1u 400u 800u)
SYMBOL res -1232 -224 R0
SYMATTR InstName R11
SYMATTR Value 270K
SYMBOL res -1232 -112 R0
SYMATTR InstName R12
SYMATTR Value 91K
TEXT -480 664 Left 0 !.tran 4m startup
TEXT -896 -232 Bottom 0 ;LT3596 - 60V Step-Down 3-Channel LED Driver \nInput: 48V       Output: 3-Channels of 9 LEDs, 100mA per Channel
TEXT -1504 776 Left 0 ;Note:\n  If the simulation model is not found please update with the "Sync Release" command from the "Tools" menu.\n  It remains the customer's responsibility to verify proper and reliable operation in the actual application.\n  Component substitution and printed circuit board layout may significantly affect circuit performance or reliability.\n  Contact your local sales representative for assistance. This circuit is distributed to customers only for use with LTC parts.\n  Copyright © 2011 Linear Technology Inc. All rights reserved.
