Version 4
SHEET 1 1444 680
WIRE 640 -240 176 -240
WIRE 768 -240 704 -240
WIRE 80 -176 -128 -176
WIRE 176 -176 176 -240
WIRE 176 -176 80 -176
WIRE 256 -176 176 -176
WIRE 368 -176 336 -176
WIRE 464 -176 368 -176
WIRE 496 -176 464 -176
WIRE 608 -176 560 -176
WIRE 688 -176 608 -176
WIRE 800 -176 688 -176
WIRE 896 -176 800 -176
WIRE 1040 -176 992 -176
WIRE 1152 -176 1040 -176
WIRE -128 -160 -128 -176
WIRE 608 -160 608 -176
WIRE 688 -160 688 -176
WIRE 800 -160 800 -176
WIRE 1040 -160 1040 -176
WIRE 1152 -160 1152 -176
WIRE 368 -112 368 -176
WIRE 464 -112 464 -176
WIRE 608 -80 608 -96
WIRE -128 -64 -128 -80
WIRE 1040 -64 1040 -96
WIRE 1152 -64 1152 -80
WIRE 80 -48 80 -176
WIRE 176 -48 176 -176
WIRE 272 -48 176 -48
WIRE 688 -48 688 -80
WIRE 688 -48 560 -48
WIRE 800 -48 800 -80
WIRE 912 -48 912 -128
WIRE 912 -48 800 -48
WIRE 80 48 80 32
WIRE 272 48 80 48
WIRE 768 48 768 -240
WIRE 768 48 560 48
WIRE 912 48 912 -48
WIRE 912 48 768 48
WIRE 80 64 80 48
WIRE 176 64 176 -48
WIRE 272 144 176 144
WIRE 656 144 560 144
WIRE 752 144 720 144
WIRE 80 160 80 144
WIRE 272 240 176 240
WIRE 608 240 560 240
WIRE 176 256 176 240
WIRE 608 256 608 240
WIRE 416 320 416 304
WIRE 176 352 176 336
WIRE 608 352 608 320
FLAG 608 -80 0
FLAG -128 -64 0
FLAG -128 -176 IN
FLAG 416 320 0
FLAG 176 352 0
FLAG 608 352 0
FLAG 80 160 0
FLAG 752 144 0
FLAG 1040 -64 0
FLAG 1152 -64 0
FLAG 1152 -176 OUT
SYMBOL PowerProducts\\LT3581 416 96 R0
SYMATTR InstName U1
SYMBOL ind 240 -160 R270
WINDOW 0 32 56 VTop 0
WINDOW 3 5 56 VBottom 0
SYMATTR InstName L1
SYMATTR Value 4.7µ
SYMATTR SpiceLine Rser=.04
SYMBOL schottky 496 -160 R270
WINDOW 0 32 32 VTop 0
WINDOW 3 0 32 VBottom 0
SYMATTR InstName D1
SYMATTR Value DFLS220L
SYMATTR Description Diode
SYMATTR Type diode
SYMBOL cap 592 -160 R0
SYMATTR InstName C1
SYMATTR Value 22µ
SYMATTR SpiceLine Rser=10m
SYMBOL res 672 -176 R0
SYMATTR InstName R1
SYMATTR Value 130K
SYMBOL res 784 -176 R0
SYMATTR InstName R2
SYMATTR Value 6.8K
SYMBOL pmos 992 -128 M270
WINDOW 0 55 45 VTop 0
WINDOW 3 -20 74 VLeft 0
SYMATTR InstName Q1
SYMATTR Value Si4427DY
SYMBOL res 160 240 R0
SYMATTR InstName R3
SYMATTR Value 84.5K
SYMBOL cap 592 256 R0
SYMATTR InstName C2
SYMATTR Value .027µ
SYMBOL res 160 48 R0
SYMATTR InstName R4
SYMATTR Value 100K
SYMBOL res 64 48 R0
SYMATTR InstName R5
SYMATTR Value 10K
SYMBOL res 64 -64 R0
SYMATTR InstName R6
SYMATTR Value 22.1K
SYMBOL cap 656 160 R270
WINDOW 0 32 32 VTop 0
WINDOW 3 0 32 VBottom 0
WINDOW 39 -21 32 VBottom 0
SYMATTR InstName C3
SYMATTR Value 2200p
SYMATTR SpiceLine Rser=10K Cpar=100p
SYMBOL cap 1024 -160 R0
SYMATTR InstName C4
SYMATTR Value 4.7µ
SYMATTR SpiceLine Rser=5m
SYMBOL schottky 640 -224 R270
WINDOW 0 32 32 VTop 0
WINDOW 3 0 32 VBottom 0
SYMATTR InstName D2
SYMATTR Value MBR0520L
SYMATTR Description Diode
SYMATTR Type diode
SYMBOL res 1136 -176 R0
SYMATTR InstName Rload
SYMATTR Value 13.33
SYMBOL voltage -128 -176 R0
WINDOW 123 0 0 Left 0
WINDOW 39 0 0 Left 0
SYMATTR InstName V1
SYMATTR Value PWL(0 0 0.1m 5)
TEXT 888 136 Left 0 !.tran 3m startup
TEXT 736 248 Left 0 ;Soft-start capacitor intentionally made small \nto speed-up the simulation. A 0.1µF value \nis recommended for typical applications to \navoid inducing a Fault.
TEXT -128 376 Left 0 ;Note:\n  If the simulation model is not found please update with the "Sync Release" command from the "Tools" menu.\n  It remains the customer's responsibility to verify proper and reliable operation in the actual application.\n  Component substitution and printed circuit board layout may significantly affect circuit performance or reliability.\n  Contact your local sales representative for assistance. This circuit is distributed to customers only for use with LTC parts.\n  Copyright © 2011 Linear Technology Inc. All rights reserved.
TEXT 448 -272 Bottom 0 ;LT3581,  3.3A, Boost/Inverting DC/DC Converter with Fault Protection\nInput: 5V       Output: 12V @ 900mA
