Version 4
SHEET 1 1092 680
WIRE -208 -32 -304 -32
WIRE -48 -32 -208 -32
WIRE 176 -32 -48 -32
WIRE 304 -32 176 -32
WIRE 416 -32 368 -32
WIRE 528 -32 480 -32
WIRE 304 -16 304 -32
WIRE 368 -16 368 -32
WIRE 368 -16 352 -16
WIRE 528 -16 528 -32
WIRE -304 0 -304 -32
WIRE -48 16 -48 -32
WIRE 64 16 64 -16
WIRE 176 16 176 -32
WIRE 368 64 352 64
WIRE -208 80 -208 -32
WIRE -192 80 -208 80
WIRE -96 80 -112 80
WIRE 304 80 304 64
WIRE 304 80 224 80
WIRE 368 80 368 64
WIRE 528 80 528 48
WIRE -304 112 -304 80
WIRE -208 160 -208 80
WIRE -96 160 -208 160
WIRE 240 160 224 160
WIRE -96 240 -112 240
WIRE 240 240 224 240
WIRE 64 304 64 288
FLAG 528 -32 OUT
FLAG -304 112 0
FLAG 64 304 0
FLAG 368 80 0
FLAG 528 80 0
FLAG -304 -32 IN
SYMBOL voltage -304 -16 R0
WINDOW 123 0 0 Left 0
WINDOW 39 0 0 Left 0
SYMATTR InstName V1
SYMATTR Value 3
SYMBOL ind2 288 -32 R0
WINDOW 0 -1 40 Right 0
WINDOW 3 -3 69 Right 0
SYMATTR InstName L1
SYMATTR Value 10µ
SYMBOL ind2 368 80 R180
WINDOW 0 -3 67 Right 0
WINDOW 3 -4 44 Right 0
SYMATTR InstName L2
SYMATTR Value 1.04m
SYMBOL diode 416 -16 R270
WINDOW 0 32 32 VTop 0
WINDOW 3 0 32 VBottom 0
SYMATTR InstName D1
SYMBOL cap 512 -16 R0
SYMATTR InstName C1
SYMATTR Value .1µ
SYMBOL res -208 96 R270
WINDOW 0 32 56 VTop 0
WINDOW 3 0 56 VBottom 0
SYMATTR InstName R1
SYMATTR Value 100K
SYMBOL PowerProducts\\LT3585-0 64 160 R0
SYMATTR InstName U2
TEXT 336 -40 Bottom 0 !K1 L1 L2 1
TEXT 360 176 Left 0 !.tran 10m startup
TEXT -456 336 Left 0 ;Note:\n  If the simulation model is not found please update with the "Sync Release" command from the "Tools" menu.\n  It remains the customer's responsibility to verify proper and reliable operation in the actual application.\n  Component substitution and printed circuit board layout may significantly affect circuit performance or reliability.\n  Contact your local sales representative for assistance. This circuit is distributed to customers only for use with LTC parts.\n  Copyright © 2006 Linear Technology Inc. All rights reserved.
TEXT 136 -72 Bottom 0 ;LT3585-0 - Photoflash Charger with Adjustable Input Current and IGBT Drive\nInput: 3V   Output: 320V
