Version 4
SHEET 1 4372 1608
WIRE 1984 800 1888 800
WIRE 2112 800 1984 800
WIRE 2576 800 2112 800
WIRE 3040 800 2576 800
WIRE 1888 816 1888 800
WIRE 1984 816 1984 800
WIRE 2112 816 2112 800
WIRE 3040 816 3040 800
WIRE 2576 864 2576 800
WIRE 1888 912 1888 896
WIRE 1984 912 1984 880
WIRE 2112 912 2112 880
WIRE 2368 912 2112 912
WIRE 3040 912 3040 880
WIRE 3040 912 2784 912
WIRE 1776 976 1664 976
WIRE 1856 976 1776 976
WIRE 1904 976 1856 976
WIRE 1984 976 1904 976
WIRE 2112 976 2064 976
WIRE 2368 976 2112 976
WIRE 3040 976 2784 976
WIRE 3120 976 3040 976
WIRE 3232 976 3200 976
WIRE 3328 976 3232 976
WIRE 3392 976 3328 976
WIRE 3488 976 3392 976
WIRE 1904 992 1904 976
WIRE 2112 992 2112 976
WIRE 3040 992 3040 976
WIRE 3232 992 3232 976
WIRE 1664 1024 1664 976
WIRE 3392 1024 3392 976
WIRE 3488 1024 3488 976
WIRE 1776 1040 1776 976
WIRE 2368 1040 2144 1040
WIRE 3008 1040 2784 1040
WIRE 2112 1072 2112 1056
WIRE 3040 1072 3040 1056
WIRE 1904 1104 1904 1072
WIRE 2144 1104 2144 1040
WIRE 2144 1104 1904 1104
WIRE 2192 1104 2176 1104
WIRE 2288 1104 2272 1104
WIRE 2368 1104 2352 1104
WIRE 2800 1104 2784 1104
WIRE 2880 1104 2864 1104
WIRE 2976 1104 2960 1104
WIRE 3008 1104 3008 1040
WIRE 3232 1104 3232 1072
WIRE 3232 1104 3008 1104
WIRE 1904 1120 1904 1104
WIRE 3232 1120 3232 1104
WIRE 3392 1136 3392 1088
WIRE 3488 1136 3488 1104
WIRE 1664 1152 1664 1104
WIRE 1776 1152 1776 1104
WIRE 2368 1168 2160 1168
WIRE 2992 1168 2784 1168
WIRE 1904 1216 1904 1200
WIRE 3232 1216 3232 1200
WIRE 2288 1232 2256 1232
WIRE 2368 1232 2352 1232
WIRE 2816 1232 2784 1232
WIRE 2896 1232 2880 1232
WIRE 1856 1248 1856 976
WIRE 1984 1248 1856 1248
WIRE 2160 1248 2160 1168
WIRE 2160 1248 2064 1248
WIRE 2992 1248 2992 1168
WIRE 3040 1248 2992 1248
WIRE 3328 1248 3328 976
WIRE 3328 1248 3120 1248
WIRE 2576 1296 2576 1280
FLAG 1984 912 0
FLAG 2576 1296 0
FLAG 2896 1232 0
FLAG 3232 1216 0
FLAG 3040 1072 0
FLAG 3392 1136 0
FLAG 3488 1136 0
FLAG 3488 976 OUT1
FLAG 2976 1104 0
FLAG 2256 1232 0
FLAG 1904 1216 0
FLAG 2112 1072 0
FLAG 1776 1152 0
FLAG 1664 1152 0
FLAG 1664 976 OUT2
FLAG 2176 1104 0
FLAG 1888 912 0
SYMBOL VOLTAGE 1888 800 R0
WINDOW 0 27 22 Left 0
WINDOW 3 29 98 Left 0
WINDOW 123 0 0 Left 0
WINDOW 39 0 0 Left 0
SYMATTR InstName V1
SYMATTR Value 5
SYMBOL cap 2816 1248 R270
WINDOW 0 32 32 VTop 0
WINDOW 3 0 32 VBottom 0
SYMATTR InstName C1
SYMATTR Value 100p
SYMBOL cap 3024 912 R0
WINDOW 3 36 43 Left 0
WINDOW 0 38 17 Left 0
SYMATTR Value .1µ
SYMATTR InstName C2
SYMBOL ind 3104 992 R270
WINDOW 0 32 56 VTop 0
WINDOW 3 5 56 VBottom 0
SYMATTR InstName L1
SYMATTR Value 4.7µ
SYMATTR SpiceLine Rser=45m
SYMBOL RES 3216 976 R0
SYMATTR InstName R1
SYMATTR Value 12.4K
SYMBOL res 3216 1104 R0
SYMATTR InstName R2
SYMATTR Value 10K
SYMBOL schottky 3024 1056 M180
WINDOW 0 40 57 Left 0
WINDOW 3 24 0 Left 0
SYMATTR InstName D1
SYMATTR Value MBRS340
SYMBOL cap 3376 1024 R0
SYMATTR InstName C3
SYMATTR Value 22µ
SYMATTR SpiceLine Rser=0.005
SYMBOL cap 2800 1120 R270
WINDOW 0 32 32 VTop 0
WINDOW 3 0 32 VBottom 0
SYMATTR InstName C4
SYMATTR Value 470p
SYMBOL res 3136 1264 M270
WINDOW 0 32 56 VTop 0
WINDOW 3 0 56 VBottom 0
SYMATTR InstName R3
SYMATTR Value 100K
SYMBOL cap 2352 1248 M270
WINDOW 0 32 32 VTop 0
WINDOW 3 0 32 VBottom 0
SYMATTR InstName C5
SYMATTR Value 100p
SYMBOL cap 2096 912 R0
WINDOW 0 38 17 Left 0
WINDOW 3 38 41 Left 0
SYMATTR InstName C6
SYMATTR Value .1µ
SYMBOL ind 2080 992 M270
WINDOW 0 32 56 VTop 0
WINDOW 3 5 56 VBottom 0
SYMATTR InstName L2
SYMATTR Value 3.3µ
SYMATTR SpiceLine Rser=34m
SYMBOL RES 1888 976 R0
SYMATTR InstName R4
SYMATTR Value 4.99K
SYMBOL res 1888 1104 R0
SYMATTR InstName R5
SYMATTR Value 10K
SYMBOL schottky 2128 1056 R180
WINDOW 0 1 57 Right 0
WINDOW 3 24 5 Left 0
SYMATTR InstName D2
SYMATTR Value MBRS340
SYMBOL cap 1760 1040 R0
SYMATTR InstName C7
SYMATTR Value 47µ
SYMATTR SpiceLine Rser=0.005
SYMBOL res 1648 1008 R0
SYMATTR InstName Rload2
SYMATTR Value 0.75
SYMBOL cap 2352 1120 M270
WINDOW 0 32 32 VTop 0
WINDOW 3 0 32 VBottom 0
SYMATTR InstName C8
SYMATTR Value 330p
SYMBOL res 1968 1264 R270
WINDOW 0 32 56 VTop 0
WINDOW 3 0 56 VBottom 0
SYMATTR InstName R7
SYMATTR Value 100K
SYMBOL res 2288 1088 R90
WINDOW 0 0 56 VBottom 0
WINDOW 3 32 56 VTop 0
SYMATTR InstName R8
SYMATTR Value 24K
SYMBOL res 2976 1088 R90
WINDOW 0 0 56 VBottom 0
WINDOW 3 32 56 VTop 0
SYMATTR InstName R9
SYMATTR Value 20K
SYMBOL schottky 2096 816 R0
WINDOW 0 42 10 Left 0
WINDOW 3 42 52 Left 0
SYMATTR InstName D3
SYMATTR Value BAT54
SYMATTR Description Diode
SYMATTR Type diode
SYMBOL schottky 3024 816 R0
WINDOW 0 38 17 Left 0
WINDOW 3 38 55 Left 0
SYMATTR InstName D4
SYMATTR Value BAT54
SYMATTR Description Diode
SYMATTR Type diode
SYMBOL cap 1968 816 R0
SYMATTR InstName C9
SYMATTR Value 4.7µ
SYMATTR SpiceLine Rser=0.005
SYMBOL PowerProducts\\LT3506 2576 1072 R0
SYMATTR InstName U1
SYMBOL res 3472 1008 R0
SYMATTR InstName Rload1
SYMATTR Value 1.13
TEXT 2772 1308 Left 0 !.tran 300u startup
TEXT 2584 792 Bottom 0 ;LT3506 - 1.6A, 575KHz Step-Down Switching Regulator\nInput:  3.6V - 21V   Outputs: 1.8V @ 1.6A  and 1.2V @ 1.6A
TEXT 1776 976 Bottom 0 ;1.2V
TEXT 3392 976 Bottom 0 ;1.8V
TEXT 2064 1320 Left 0 ;Note:\n  If the simulation model is not found please update with the "Sync Release" command from the "Tools" menu.\n  It remains the customer's responsibility to verify proper and reliable operation in the actual application.\n  Component substitution and printed circuit board layout may significantly affect circuit performance or reliability.\n  Contact your local sales representative for assistance. This circuit is distributed to customers only for use with LTC parts.\n  Copyright © 2006 Linear Technology Inc. All rights reserved.
