Version 4
SHEET 1 880 680
WIRE -106096 -144 -106224 -144
WIRE -106016 -144 -106096 -144
WIRE -105968 -144 -106016 -144
WIRE -105840 -144 -105888 -144
WIRE -105744 -144 -105840 -144
WIRE -105696 -144 -105744 -144
WIRE -105600 -144 -105632 -144
WIRE -105504 -144 -105600 -144
WIRE -105392 -144 -105440 -144
WIRE -105280 -144 -105392 -144
WIRE -105168 -144 -105280 -144
WIRE -106224 -128 -106224 -144
WIRE -106096 -128 -106096 -144
WIRE -105600 -128 -105600 -144
WIRE -105280 -128 -105280 -144
WIRE -105168 -128 -105168 -144
WIRE -105392 -112 -105392 -144
WIRE -105840 -48 -105840 -144
WIRE -105744 -48 -105744 -144
WIRE -106224 -32 -106224 -48
WIRE -106096 -32 -106096 -64
WIRE -105600 -32 -105600 -48
WIRE -105280 -32 -105280 -64
WIRE -105168 -32 -105168 -48
WIRE -106016 16 -106016 -144
WIRE -105936 16 -106016 16
WIRE -105392 16 -105392 -32
WIRE -105392 16 -105648 16
WIRE -106016 112 -106016 16
WIRE -105936 112 -106016 112
WIRE -106016 128 -106016 112
WIRE -105936 208 -106016 208
WIRE -105536 208 -105648 208
WIRE -105488 208 -105536 208
WIRE -105360 208 -105408 208
WIRE -105536 224 -105536 208
WIRE -105360 224 -105360 208
WIRE -106032 304 -106048 304
WIRE -105936 304 -105952 304
WIRE -105600 304 -105648 304
WIRE -105536 304 -105536 288
WIRE -105360 304 -105360 288
WIRE -105600 320 -105600 304
WIRE -105792 384 -105792 368
WIRE -105600 400 -105600 384
FLAG -106096 -32 0
FLAG -106224 -32 0
FLAG -105600 -32 0
FLAG -106048 304 0
FLAG -105792 384 0
FLAG -105600 400 0
FLAG -105280 -32 0
FLAG -106224 -144 IN
FLAG -105168 -144 OUT
FLAG -105168 -32 0
FLAG -105360 304 0
FLAG -105536 304 0
SYMBOL PowerProducts\\LT3579 -105792 160 R0
SYMATTR InstName U1
SYMBOL cap -106112 -128 R0
WINDOW 3 43 35 Left 0
WINDOW 40 28 63 Left 0
SYMATTR Value 4.7µ
SYMATTR SpiceLine2 x2
SYMATTR InstName C1
SYMATTR SpiceLine V=25 Irms=0 Rser=0.004 Lser=0 mfg="TDK" pn="C4532X7RIE475M" type="X7R"
SYMBOL voltage -106224 -144 R0
WINDOW 123 24 146 Left 0
WINDOW 39 24 125 Left 0
WINDOW 3 23 96 Left 0
SYMATTR Value 12
SYMATTR InstName V1
SYMBOL cap -105632 -160 R90
WINDOW 0 0 32 VBottom 0
WINDOW 3 32 32 VTop 0
SYMATTR InstName C2
SYMATTR Value 4.7µ
SYMATTR SpiceLine V=25 Irms=0 Rser=0.004 Lser=0 mfg="TDK" pn="C4532X7RIE475M" type="X7R"
SYMBOL schottky -105504 -128 R270
WINDOW 0 32 32 VTop 0
WINDOW 3 0 32 VBottom 0
SYMATTR InstName D1
SYMATTR Value MBRS360
SYMBOL res -105408 -128 R0
SYMATTR InstName R1
SYMATTR Value 130K
SYMBOL res -106032 112 R0
SYMATTR InstName R2
SYMATTR Value 100K
SYMBOL res -105936 288 R90
WINDOW 0 0 56 VBottom 0
WINDOW 3 32 56 VTop 0
SYMATTR InstName R3
SYMATTR Value 86.6K
SYMBOL cap -105616 384 M180
WINDOW 0 24 64 Left 0
WINDOW 3 24 8 Left 0
SYMATTR InstName C3
SYMATTR Value .02µ
SYMBOL cap -105296 -128 R0
WINDOW 3 47 33 Left 0
WINDOW 40 30 59 Left 0
SYMATTR Value 10µ
SYMATTR SpiceLine2 x3
SYMATTR InstName C4
SYMATTR SpiceLine V=25 Irms=0 Rser=0.001 Lser=0 mfg="TDK" pn="C575OX7RIE106M" type="X7R"
SYMBOL ind2 -105984 -128 R270
WINDOW 0 32 56 VTop 0
WINDOW 3 4 56 VBottom 0
SYMATTR InstName L1
SYMATTR Value 6.8µ
SYMATTR Type ind
SYMATTR SpiceLine Ipk=8.68 Rser=0.0123 Rpar=0 Cpar=0 mfg="Coiltronics" pn="DR125-6R8-R"
SYMBOL ind2 -105616 -32 M180
WINDOW 0 36 80 Left 0
WINDOW 3 36 40 Left 0
SYMATTR InstName L2
SYMATTR Value 6.8µ
SYMATTR Type ind
SYMATTR SpiceLine Ipk=8.68 Rser=0.0123 Rpar=0 Cpar=0 mfg="Coiltronics" pn="DR125-6R8-R"
SYMBOL res -105184 -144 R0
SYMATTR InstName Rload
SYMATTR Value 8.57
SYMBOL cap -105552 224 R0
SYMATTR InstName C5
SYMATTR Value 47p
SYMBOL cap -105376 224 R0
SYMATTR InstName C6
SYMATTR Value 2200p
SYMBOL res -105392 192 R90
WINDOW 0 0 56 VBottom 0
WINDOW 3 32 56 VTop 0
SYMATTR InstName R4
SYMATTR Value 9.53K
TEXT -105360 376 Left 0 !.tran 2m startup
TEXT -105784 -144 Bottom 0 !K1 L1 L2 1
TEXT -106296 400 Left 0 ;Notes: \n  C3 should be 0.22µF, not 0.02µF.  It is reduced in value here to speed up the time to simulate a soft start cycle.\n \n  If the simulation model is not found please update with the "Sync Release" command from the "Tools" menu.\n  It remains the customer's responsibility to verify proper and reliable operation in the actual application.\n  Component substitution and printed circuit board layout may significantly affect circuit performance or reliability.\n  Contact your local sales representative for assistance. This circuit is distributed to customers only for use with LTC parts.\n  Copyright © 2011 Linear Technology Inc. All rights reserved.
TEXT -105696 -200 Bottom 0 ;LT3579 - 6A Boost/Inverting DC/DC Converter with Fault Protection\n1MHz SEPIC Converter Generates a 12V @ 1.4A Output from a 9V to 16V Input\nInput: 9V-16V      Output: 12V @ 1.4A-1.9A
