Version 4
SHEET 1 2260 740
WIRE 512 16 -48 16
WIRE -48 80 -48 16
WIRE -32 80 -48 80
WIRE 304 80 256 80
WIRE 304 96 304 80
WIRE -144 176 -240 176
WIRE -32 176 -144 176
WIRE 304 176 304 160
WIRE 304 176 256 176
WIRE 352 176 304 176
WIRE 512 176 512 16
WIRE 512 176 432 176
WIRE 624 176 512 176
WIRE 720 176 624 176
WIRE 816 176 720 176
WIRE -240 192 -240 176
WIRE 304 192 304 176
WIRE 720 192 720 176
WIRE 816 192 816 176
WIRE 624 208 624 176
WIRE 512 224 512 176
WIRE -144 272 -144 176
WIRE -32 272 -144 272
WIRE 304 272 304 256
WIRE 304 272 256 272
WIRE -144 288 -144 272
WIRE 720 288 720 256
WIRE 816 288 816 272
WIRE -240 304 -240 272
WIRE -144 368 -144 352
WIRE -32 368 -48 368
WIRE 512 368 512 304
WIRE 512 368 256 368
WIRE 624 368 624 272
WIRE 624 368 512 368
WIRE 512 384 512 368
WIRE 512 480 512 464
FLAG -240 304 0
FLAG -48 368 0
FLAG 512 480 0
FLAG 816 288 0
FLAG 720 288 0
FLAG 816 176 OUT
FLAG -240 176 IN
FLAG -144 368 0
SYMBOL voltage -240 176 R0
WINDOW 123 0 0 Left 0
WINDOW 39 0 0 Left 0
SYMATTR InstName V1
SYMATTR Value 12
SYMBOL ind 336 192 R270
WINDOW 0 32 56 VTop 0
WINDOW 3 5 56 VBottom 0
SYMATTR InstName L1
SYMATTR Value 6.8µ
SYMATTR SpiceLine Rser=0.157 Rpar=641
SYMBOL res 496 208 R0
SYMATTR InstName R2
SYMATTR Value 52.3K
SYMBOL res 496 368 R0
SYMATTR InstName R3
SYMATTR Value 10K
SYMBOL cap 704 192 R0
SYMATTR InstName C2
SYMATTR Value 10µ
SYMBOL schottky 288 256 M180
WINDOW 0 22 62 Left 0
WINDOW 3 24 0 Left 0
SYMATTR InstName D1
SYMATTR Value PMEG4005AEA
SYMATTR Description Diode
SYMATTR Type diode
SYMBOL cap 288 96 R0
WINDOW 3 27 54 Left 0
SYMATTR Value .1µ
SYMATTR InstName C3
SYMBOL PowerProducts\\LT3502A 112 224 R0
SYMATTR InstName U1
SYMBOL cap 608 208 R0
SYMATTR InstName C1
SYMATTR Value 22p
SYMBOL cap -160 288 R0
SYMATTR InstName C4
SYMATTR Value 1µ
SYMBOL res 800 176 R0
SYMATTR InstName R1
SYMATTR Value 10
TEXT 648 408 Left 0 !.tran 250u startup
TEXT 232 -8 Bottom 0 ;LT3502A - 40V, 500mA, 2.2MHz Buck Regulator in 2×2 DFN\nInput: 7V to 40V       Output: 5V @ 500mA
TEXT -328 496 Left 0 ;Note:\n  If the simulation model is not found please update with the "Sync Release" command from the "Tools" menu.\n  It remains the customer's responsibility to verify proper and reliable operation in the actual application.\n  Component substitution and printed circuit board layout may significantly affect circuit performance or reliability.\n  Contact your local sales representative for assistance. This circuit is distributed to customers only for use with LTC parts.\n  Copyright © 2007 Linear Technology Inc. All rights reserved.
