Version 4
SHEET 1 1188 748
WIRE -96 0 -192 0
WIRE -16 0 -96 0
WIRE 32 0 -16 0
WIRE 144 0 112 0
WIRE 256 0 144 0
WIRE 480 0 368 0
WIRE 624 0 480 0
WIRE 704 0 624 0
WIRE -192 16 -192 0
WIRE 704 16 704 0
WIRE 144 48 144 0
WIRE 256 48 256 0
WIRE 368 48 368 0
WIRE 704 96 704 80
WIRE -192 112 -192 96
WIRE -16 112 -16 0
WIRE 80 112 -16 112
WIRE 624 112 624 0
WIRE 624 112 432 112
WIRE -16 128 -16 112
WIRE 624 128 624 112
WIRE -16 224 -16 208
WIRE 80 224 -16 224
WIRE 624 224 624 208
WIRE 624 224 432 224
WIRE -16 240 -16 224
WIRE 480 240 480 0
WIRE 624 256 624 224
WIRE -16 336 -16 320
WIRE 80 336 48 336
WIRE 480 336 480 320
WIRE 480 336 432 336
WIRE -96 352 -96 0
WIRE 480 352 480 336
WIRE 624 384 624 320
WIRE -96 448 -96 432
WIRE 80 448 -96 448
WIRE 448 448 432 448
WIRE 480 448 480 432
WIRE -96 480 -96 448
WIRE 256 512 256 496
WIRE 48 544 48 336
WIRE 448 544 448 448
WIRE 448 544 48 544
WIRE -96 576 -96 560
FLAG 256 512 0
FLAG -192 112 0
FLAG -16 336 0
FLAG 624 384 0
FLAG 480 448 0
FLAG 704 96 0
FLAG -192 0 IN
FLAG -96 576 0
SYMBOL PowerProducts\\LT3519 256 272 R0
SYMATTR InstName U1
SYMBOL voltage -192 0 R0
SYMATTR InstName V1
SYMATTR Value 12.4
SYMBOL res 464 224 R0
SYMATTR InstName R1
SYMATTR Value 1Meg
SYMBOL res -32 112 R0
SYMATTR InstName R2
SYMATTR Value 1Meg
SYMBOL res -32 224 R0
SYMATTR InstName R3
SYMATTR Value 243K
SYMBOL res 608 112 R0
SYMATTR InstName R4
SYMATTR Value 2.49
SYMBOL res 464 336 R0
SYMATTR InstName R5
SYMATTR Value 29.4K
SYMBOL ind 16 16 R270
WINDOW 0 32 56 VTop 0
WINDOW 3 5 56 VBottom 0
SYMATTR InstName L1
SYMATTR Value 68µ
SYMATTR SpiceLine Rser=.2
SYMBOL cap 688 16 R0
SYMATTR InstName C1
SYMATTR Value 4.7µ
SYMATTR SpiceLine Rser=.01
SYMBOL LED 608 256 R0
WINDOW 123 24 100 Left 0
SYMATTR Value2 N=10
SYMATTR InstName D1
SYMATTR Value LXHL-BW02
SYMATTR Description Diode
SYMATTR Type diode
SYMBOL res -112 336 R0
SYMATTR InstName R6
SYMATTR Value 1Meg
SYMBOL res -112 464 R0
SYMATTR InstName R7
SYMATTR Value 137K
TEXT 528 504 Left 0 !.tran 1m startup
TEXT 288 -56 Bottom 0 ;LT3519 400kHz LED Driver with Integrated Schottky Diode\nInput: 12.4V       Output: 10 LEDs at 100mA
TEXT -296 592 Left 0 ;Note:\n  If the simulation model is not found please update with the "Sync Release" command from the "Tools" menu.\n  It remains the customer's responsibility to verify proper and reliable operation in the actual application.\n  Component substitution and printed circuit board layout may significantly affect circuit performance or reliability.\n  Contact your local sales representative for assistance. This circuit is distributed to customers only for use with LTC parts.\n  Copyright © 2010 Linear Technology Inc. All rights reserved.
