Version 4
SHEET 1 2260 740
WIRE 496 0 -48 0
WIRE -48 80 -48 0
WIRE -32 80 -48 80
WIRE 304 80 256 80
WIRE 304 96 304 80
WIRE -144 176 -240 176
WIRE -32 176 -144 176
WIRE 304 176 304 160
WIRE 304 176 256 176
WIRE 352 176 304 176
WIRE 496 176 496 0
WIRE 496 176 432 176
WIRE 608 176 496 176
WIRE 704 176 608 176
WIRE 304 192 304 176
WIRE 608 192 608 176
WIRE 704 192 704 176
WIRE -240 208 -240 176
WIRE 496 256 496 176
WIRE -144 272 -144 176
WIRE -32 272 -144 272
WIRE 304 272 304 256
WIRE 304 272 256 272
WIRE -144 288 -144 272
WIRE 608 288 608 256
WIRE 704 288 704 272
WIRE -240 304 -240 288
WIRE -32 368 -48 368
WIRE 496 368 496 336
WIRE 496 368 256 368
WIRE -144 384 -144 352
WIRE 496 384 496 368
WIRE 496 480 496 464
FLAG -240 304 0
FLAG -48 368 0
FLAG 496 480 0
FLAG 704 288 0
FLAG 608 288 0
FLAG 704 176 OUT
FLAG -240 176 IN
FLAG -144 384 0
SYMBOL PowerProducts\\LT3502 112 224 R0
SYMATTR InstName U1
SYMBOL voltage -240 192 R0
WINDOW 123 0 0 Left 0
WINDOW 39 0 0 Left 0
SYMATTR InstName V1
SYMATTR Value 5
SYMBOL ind 336 192 R270
WINDOW 0 32 56 VTop 0
WINDOW 3 5 56 VBottom 0
SYMATTR InstName L1
SYMATTR Value 15µ
SYMATTR SpiceLine Rser=0.226 Rpar=1414
SYMBOL res 480 240 R0
SYMATTR InstName R2
SYMATTR Value 31.6K
SYMBOL res 480 368 R0
SYMATTR InstName R3
SYMATTR Value 10K
SYMBOL cap 592 192 R0
SYMATTR InstName C2
SYMATTR Value 22µ
SYMBOL res 688 176 R0
SYMATTR InstName R4
SYMATTR Value 6.6
SYMBOL schottky 288 256 M180
WINDOW 0 22 62 Left 0
WINDOW 3 24 0 Left 0
SYMATTR InstName D1
SYMATTR Value PMEG4005AEA
SYMATTR Description Diode
SYMATTR Type diode
SYMBOL cap 288 96 R0
WINDOW 3 27 54 Left 0
SYMATTR Value .1µ
SYMATTR InstName C3
SYMBOL cap -160 288 R0
SYMATTR InstName C1
SYMATTR Value 1µ
TEXT 616 376 Left 0 !.tran 300u startup
TEXT 240 -8 Bottom 0 ;LT3502 - 40V, 500mA, 1.1MHz Buck Regulator in 2×2 DFN\nInput: 5V to 40V       Output: 3.3V @ 500mA
TEXT -360 496 Left 0 ;Note:\n  If the simulation model is not found please update with the "Sync Release" command from the "Tools" menu.\n  It remains the customer's responsibility to verify proper and reliable operation in the actual application.\n  Component substitution and printed circuit board layout may significantly affect circuit performance or reliability.\n  Contact your local sales representative for assistance. This circuit is distributed to customers only for use with LTC parts.\n  Copyright © 2007 Linear Technology Inc. All rights reserved.
