Version 4
SHEET 1 4372 1608
WIRE 2304 752 2176 752
WIRE 2576 752 2304 752
WIRE 2176 768 2176 752
WIRE 2304 768 2304 752
WIRE 2176 864 2176 848
WIRE 2304 864 2304 832
WIRE 2576 864 2576 752
WIRE 1904 912 1840 912
WIRE 2112 912 1968 912
WIRE 2368 912 2112 912
WIRE 3040 912 2784 912
WIRE 3232 912 3040 912
WIRE 3344 912 3296 912
WIRE 1744 976 1632 976
WIRE 1840 976 1840 912
WIRE 1840 976 1744 976
WIRE 1904 976 1840 976
WIRE 1984 976 1904 976
WIRE 2112 976 2064 976
WIRE 2368 976 2112 976
WIRE 3040 976 2784 976
WIRE 3136 976 3040 976
WIRE 3248 976 3216 976
WIRE 3344 976 3344 912
WIRE 3344 976 3248 976
WIRE 3408 976 3344 976
WIRE 3504 976 3408 976
WIRE 2112 992 2112 976
WIRE 3040 992 3040 976
WIRE 3248 992 3248 976
WIRE 1632 1008 1632 976
WIRE 1904 1008 1904 976
WIRE 1744 1024 1744 976
WIRE 2368 1040 2144 1040
WIRE 3008 1040 2784 1040
WIRE 3408 1040 3408 976
WIRE 3504 1040 3504 976
WIRE 2112 1072 2112 1056
WIRE 3040 1072 3040 1056
WIRE 1904 1104 1904 1088
WIRE 2144 1104 2144 1040
WIRE 2144 1104 1904 1104
WIRE 2192 1104 2176 1104
WIRE 2288 1104 2272 1104
WIRE 2368 1104 2352 1104
WIRE 2800 1104 2784 1104
WIRE 2880 1104 2864 1104
WIRE 2976 1104 2960 1104
WIRE 3008 1104 3008 1040
WIRE 3248 1104 3248 1072
WIRE 3248 1104 3008 1104
WIRE 1632 1120 1632 1088
WIRE 1744 1120 1744 1088
WIRE 1904 1120 1904 1104
WIRE 3248 1120 3248 1104
WIRE 2368 1168 2208 1168
WIRE 2944 1168 2784 1168
WIRE 3408 1168 3408 1104
WIRE 3504 1168 3504 1120
WIRE 1904 1216 1904 1200
WIRE 3248 1216 3248 1200
WIRE 2288 1232 2272 1232
WIRE 2368 1232 2352 1232
WIRE 2800 1232 2784 1232
WIRE 2880 1232 2864 1232
WIRE 1840 1248 1840 976
WIRE 2032 1248 1840 1248
WIRE 2208 1248 2208 1168
WIRE 2208 1248 2112 1248
WIRE 2944 1248 2944 1168
WIRE 3072 1248 2944 1248
WIRE 3344 1248 3344 976
WIRE 3344 1248 3152 1248
WIRE 2576 1296 2576 1280
FLAG 2304 864 0
FLAG 2576 1296 0
FLAG 2880 1232 0
FLAG 3248 1216 0
FLAG 3040 1072 0
FLAG 3408 1168 0
FLAG 3504 1168 0
FLAG 3504 976 OUT1
FLAG 2976 1104 0
FLAG 2272 1232 0
FLAG 1904 1216 0
FLAG 2112 1072 0
FLAG 1744 1120 0
FLAG 1632 1120 0
FLAG 1632 976 OUT2
FLAG 2176 1104 0
FLAG 2176 864 0
SYMBOL VOLTAGE 2176 752 R0
WINDOW 0 27 22 Left 0
WINDOW 3 29 98 Left 0
WINDOW 123 0 0 Left 0
WINDOW 39 0 0 Left 0
SYMATTR InstName V1
SYMATTR Value 12
SYMBOL cap 2800 1248 R270
WINDOW 0 32 32 VTop 0
WINDOW 3 0 32 VBottom 0
SYMATTR InstName C1
SYMATTR Value 100p
SYMBOL cap 3024 912 R0
WINDOW 3 36 43 Left 0
WINDOW 0 38 17 Left 0
SYMATTR Value .1µ
SYMATTR InstName C2
SYMBOL ind 3120 992 R270
WINDOW 0 32 56 VTop 0
WINDOW 3 5 56 VBottom 0
SYMATTR InstName L1
SYMATTR Value 4.7µ
SYMATTR SpiceLine Rser=66m
SYMBOL RES 3232 976 R0
SYMATTR InstName R1
SYMATTR Value 52.3K
SYMBOL res 3232 1104 R0
SYMATTR InstName R2
SYMATTR Value 10K
SYMBOL schottky 3024 1056 M180
WINDOW 0 35 52 Left 0
WINDOW 3 24 0 Left 0
SYMATTR InstName D1
SYMATTR Value MBRS340
SYMBOL cap 3392 1040 R0
SYMATTR InstName C3
SYMATTR Value 22µ
SYMATTR SpiceLine Rser=0.005
SYMBOL cap 2800 1120 R270
WINDOW 0 32 32 VTop 0
WINDOW 3 0 32 VBottom 0
SYMATTR InstName C4
SYMATTR Value 220p
SYMBOL res 3168 1232 R90
WINDOW 0 0 56 VBottom 0
WINDOW 3 32 56 VTop 0
SYMATTR InstName R3
SYMATTR Value 100K
SYMBOL cap 2352 1248 M270
WINDOW 0 32 32 VTop 0
WINDOW 3 0 32 VBottom 0
SYMATTR InstName C5
SYMATTR Value 100p
SYMBOL cap 2096 912 R0
WINDOW 0 38 17 Left 0
WINDOW 3 38 41 Left 0
SYMATTR InstName C6
SYMATTR Value .1µ
SYMBOL ind 2080 992 M270
WINDOW 0 32 56 VTop 0
WINDOW 3 5 56 VBottom 0
SYMATTR InstName L2
SYMATTR Value 3.5µ
SYMATTR SpiceLine Rser=52m
SYMBOL RES 1888 992 R0
SYMATTR InstName R4
SYMATTR Value 31.6K
SYMBOL res 1888 1104 R0
SYMATTR InstName R5
SYMATTR Value 10K
SYMBOL schottky 2128 1056 R180
WINDOW 0 -7 62 Right 0
WINDOW 3 24 3 Left 0
SYMATTR InstName D2
SYMATTR Value MBRS340
SYMBOL cap 1728 1024 R0
SYMATTR InstName C7
SYMATTR Value 22µ
SYMATTR SpiceLine Rser=0.005
SYMBOL res 1616 992 R0
SYMATTR InstName Rload2
SYMATTR Value 2.1
SYMBOL cap 2352 1120 M270
WINDOW 0 32 32 VTop 0
WINDOW 3 0 32 VBottom 0
SYMATTR InstName C8
SYMATTR Value 220p
SYMBOL res 2016 1232 M90
WINDOW 0 0 56 VBottom 0
WINDOW 3 32 56 VTop 0
SYMATTR InstName R7
SYMATTR Value 100K
SYMBOL res 2288 1088 R90
WINDOW 0 0 56 VBottom 0
WINDOW 3 32 56 VTop 0
SYMATTR InstName R8
SYMATTR Value 28K
SYMBOL res 2864 1088 M90
WINDOW 0 0 56 VBottom 0
WINDOW 3 32 56 VTop 0
SYMATTR InstName R9
SYMATTR Value 39K
SYMBOL schottky 1904 928 R270
WINDOW 0 32 32 VTop 0
WINDOW 3 0 32 VBottom 0
SYMATTR InstName D3
SYMATTR Value BAT54
SYMATTR Description Diode
SYMATTR Type diode
SYMBOL schottky 3296 896 R90
WINDOW 0 0 32 VBottom 0
WINDOW 3 32 32 VTop 0
SYMATTR InstName D4
SYMATTR Value BAT54
SYMATTR Description Diode
SYMATTR Type diode
SYMBOL PowerProducts\\LT3506A 2576 1072 R0
SYMATTR InstName U1
SYMBOL cap 2288 768 R0
SYMATTR InstName C9
SYMATTR Value 4.7µ
SYMATTR SpiceLine Rser=0.005
SYMBOL res 3488 1024 R0
SYMATTR InstName Rload1
SYMATTR Value 3.09
TEXT 2868 1300 Left 0 !.tran 300u startup
TEXT 2576 744 Bottom 0 ;LT3506A - 1.6A, 1.1MHz Step-Down Switching Regulator\nInput: 6.8V to 25V   Outputs: 5V @ 1.6A  and 3.3V @ 1.6A
TEXT 1744 976 Bottom 0 ;3.3V
TEXT 3408 976 Bottom 0 ;5V
TEXT 1968 1312 Left 0 ;Note:\n  If the simulation model is not found please update with the "Sync Release" command from the "Tools" menu.\n  It remains the customer's responsibility to verify proper and reliable operation in the actual application.\n  Component substitution and printed circuit board layout may significantly affect circuit performance or reliability.\n  Contact your local sales representative for assistance. This circuit is distributed to customers only for use with LTC parts.\n  Copyright © 2006 Linear Technology Inc. All rights reserved.
