Version 4
SHEET 1 1476 1108
WIRE 656 -96 128 -96
WIRE 736 -96 656 -96
WIRE 880 -96 736 -96
WIRE 656 -80 656 -96
WIRE 0 0 -128 0
WIRE 128 0 128 -96
WIRE 128 0 0 0
WIRE 144 0 128 0
WIRE 240 0 224 0
WIRE 336 0 240 0
WIRE 496 0 432 0
WIRE 608 0 560 0
WIRE 656 0 656 -16
WIRE 656 0 608 0
WIRE 736 0 736 -96
WIRE -128 16 -128 0
WIRE 0 16 0 0
WIRE 880 16 880 -96
WIRE 656 32 656 0
WIRE 128 80 128 0
WIRE 240 80 240 0
WIRE 352 80 352 48
WIRE -128 112 -128 96
WIRE 880 128 880 96
WIRE -32 144 -128 144
WIRE 48 144 -32 144
WIRE 64 144 48 144
WIRE 656 144 656 112
WIRE 656 144 416 144
WIRE 736 144 736 64
WIRE 736 144 656 144
WIRE -128 160 -128 144
WIRE -32 160 -32 144
WIRE 608 176 608 0
WIRE 688 176 608 176
WIRE 816 176 768 176
WIRE 48 208 48 144
WIRE 64 208 48 208
WIRE 640 208 416 208
WIRE -32 240 -32 224
WIRE 640 240 640 208
WIRE 880 240 880 224
WIRE 880 240 640 240
WIRE -128 256 -128 240
WIRE 880 256 880 240
WIRE 64 272 48 272
WIRE 512 272 416 272
WIRE 608 272 592 272
WIRE 48 336 48 272
WIRE 64 336 48 336
WIRE 448 336 416 336
WIRE 608 336 528 336
WIRE 704 336 672 336
WIRE 880 352 880 336
WIRE -160 400 -208 400
WIRE 64 400 -80 400
WIRE 528 400 416 400
WIRE 576 400 560 400
WIRE 608 400 592 400
WIRE 48 464 48 336
WIRE 64 464 48 464
WIRE 448 464 416 464
WIRE 240 528 240 512
FLAG -128 112 0
FLAG 608 272 0
FLAG 240 528 0
FLAG -128 256 0
FLAG 704 336 0
FLAG 608 400 0
FLAG 448 464 0
FLAG -208 400 0
FLAG 880 352 0
FLAG 0 80 0
FLAG -32 240 0
SYMBOL ind 640 16 R0
SYMATTR InstName L1
SYMATTR Value 15µ
SYMATTR SpiceLine Rpar=2K
SYMBOL res 128 16 R270
WINDOW 0 32 56 VTop 0
WINDOW 3 0 56 VBottom 0
SYMATTR InstName R1
SYMATTR Value .068
SYMBOL cap 640 -80 R0
WINDOW 3 28 55 Left 0
SYMATTR Value 10µ
SYMATTR InstName C5
SYMBOL voltage -128 0 R0
WINDOW 123 0 0 Left 0
WINDOW 39 0 0 Left 0
SYMATTR InstName V2
SYMATTR Value 24
SYMBOL LED 496 16 R270
WINDOW 3 -7 34 VBottom 0
WINDOW 123 -30 35 VBottom 0
WINDOW 0 67 34 VTop 0
SYMATTR Value LXK2-PW14
SYMATTR Value2 N=3
SYMATTR InstName D1
SYMATTR Description Diode
SYMATTR Type diode
SYMBOL res 496 256 M90
WINDOW 0 0 56 VBottom 0
WINDOW 3 32 56 VTop 0
SYMATTR InstName R6
SYMATTR Value 16.5k
SYMBOL pmos 432 48 M270
WINDOW 0 66 53 VLeft 0
WINDOW 3 -12 75 VLeft 0
SYMATTR InstName Q1
SYMATTR Value FDS4685
SYMBOL voltage -128 144 R0
WINDOW 123 0 0 Left 0
WINDOW 39 0 0 Left 0
SYMATTR InstName V1
SYMATTR Value 3.3
SYMBOL cap 608 352 R270
WINDOW 0 32 32 VTop 0
WINDOW 3 0 32 VBottom 0
SYMATTR InstName C4
SYMATTR Value 4.7n
SYMBOL cap 528 416 R270
WINDOW 0 32 32 VTop 0
WINDOW 3 -2 31 VBottom 0
SYMATTR InstName C3
SYMATTR Value .01µ
SYMBOL schottky 720 64 M180
WINDOW 0 24 72 Left 0
WINDOW 3 24 0 Left 0
SYMATTR InstName D2
SYMATTR Value 10MQ060N
SYMATTR Description Diode
SYMATTR Type diode
SYMBOL voltage -64 400 R90
WINDOW 123 0 0 Left 0
WINDOW 39 0 0 Left 0
WINDOW 3 55 -102 VRight 0
WINDOW 0 -54 46 VRight 0
SYMATTR Value PULSE(3.3 0 1m 100n 100n 9800u 10m 4)
SYMATTR InstName V3
SYMBOL PowerProducts\\LT3518 240 304 R0
SYMATTR InstName U1
SYMBOL res 544 320 R90
WINDOW 0 0 56 VBottom 0
WINDOW 3 32 56 VTop 0
SYMATTR InstName R2
SYMATTR Value 5.1k
SYMBOL res 864 240 R0
SYMATTR InstName R3
SYMATTR Value 24.9k
SYMBOL res 864 0 R0
SYMATTR InstName R5
SYMATTR Value 348k
SYMBOL pnp 816 224 M180
WINDOW 0 78 74 Left 0
WINDOW 3 53 43 Left 0
SYMATTR InstName Q2
SYMATTR Value 2N3906
SYMBOL cap -48 160 R0
WINDOW 0 27 8 Left 0
WINDOW 3 32 58 Left 0
SYMATTR InstName C1
SYMATTR Value 1µ
SYMBOL cap -16 16 R0
WINDOW 3 34 50 Left 0
SYMATTR Value 2.2µ
SYMATTR InstName C2
SYMBOL res 784 192 M270
WINDOW 0 -27 94 VTop 0
WINDOW 3 0 31 VBottom 0
SYMATTR InstName R4
SYMATTR Value 10k
TEXT 496 488 Left 0 !.tran 42m startup
TEXT 336 -120 Bottom 0 ;DC1160A - LT3518 45V, 2.3A Internal Switch Buck Mode LED Driver\nInput: 24V       Output: 1.5A through a string of 3 LEDs\nPWM DIM: 100Hz 1:50 ratio    15V LED+ to LED- OVP with OPEN LED string
TEXT -376 536 Left 0 ;Note:\n  If the simulation model is not found please update with the "Sync Release" command from the "Tools" menu.\n  It remains the customer's responsibility to verify proper and reliable operation in the actual application.\n  Component substitution and printed circuit board layout may significantly affect circuit performance or reliability.\n  Contact your local sales representative for assistance. This circuit is distributed to customers only for use with LTC parts.\n  Copyright © 2009 Linear Technology Inc. All rights reserved.
