Version 4
SHEET 1 1164 820
WIRE -1312 -224 -1408 -224
WIRE -1216 -224 -1312 -224
WIRE -976 -224 -1216 -224
WIRE -576 -224 -832 -224
WIRE -464 -224 -576 -224
WIRE -1408 -208 -1408 -224
WIRE -1216 -208 -1216 -224
WIRE -576 -208 -576 -224
WIRE -464 -208 -464 -224
WIRE -1312 -192 -1312 -224
WIRE -976 -176 -976 -224
WIRE -832 -176 -832 -224
WIRE -1408 -112 -1408 -128
WIRE -1312 -112 -1312 -128
WIRE -1216 -112 -1216 -128
WIRE -1088 -112 -1216 -112
WIRE -672 -112 -704 -112
WIRE -576 -112 -576 -144
WIRE -464 -112 -464 -128
WIRE -1216 -96 -1216 -112
WIRE -1088 -32 -1120 -32
WIRE -672 -32 -672 -48
WIRE -672 -32 -704 -32
WIRE -608 -32 -672 -32
WIRE -480 -32 -528 -32
WIRE -432 -32 -480 -32
WIRE -368 -32 -432 -32
WIRE -672 -16 -672 -32
WIRE -432 -16 -432 -32
WIRE -1216 0 -1216 -16
WIRE -1344 48 -1376 48
WIRE -1088 48 -1264 48
WIRE -672 48 -704 48
WIRE -432 64 -432 48
WIRE -368 112 -368 -32
WIRE -1088 128 -1120 128
WIRE -672 128 -704 128
WIRE -480 128 -480 -32
WIRE -480 128 -608 128
WIRE -1184 176 -1360 176
WIRE -1120 176 -1120 128
WIRE -1120 176 -1184 176
WIRE -1360 192 -1360 176
WIRE -1184 192 -1184 176
WIRE -1120 208 -1120 176
WIRE -1088 208 -1120 208
WIRE -368 208 -368 192
WIRE -368 208 -704 208
WIRE -368 224 -368 208
WIRE -1280 288 -1296 288
WIRE -1184 288 -1184 272
WIRE -1184 288 -1200 288
WIRE -1088 288 -1184 288
WIRE -688 288 -704 288
WIRE -592 288 -608 288
WIRE -368 320 -368 304
WIRE -1456 368 -1472 368
WIRE -1360 368 -1360 272
WIRE -1360 368 -1376 368
WIRE -1088 368 -1360 368
WIRE -688 368 -704 368
WIRE -592 368 -608 368
WIRE -896 416 -896 400
FLAG -368 320 0
FLAG -896 416 0
FLAG -1296 288 0
FLAG -432 64 0
FLAG -1472 368 0
FLAG -592 288 0
FLAG -592 368 0
FLAG -1408 -112 0
FLAG -1216 0 0
FLAG -1120 -32 0
FLAG -1312 -112 0
FLAG -576 -112 0
FLAG -464 -112 0
FLAG -1376 48 0
SYMBOL ind -624 -16 R270
WINDOW 0 32 56 VTop 0
WINDOW 3 5 56 VBottom 0
SYMATTR InstName L1
SYMATTR Value 82µ
SYMATTR SpiceLine Rpar=20K
SYMBOL res -384 96 R0
SYMATTR InstName R1
SYMATTR Value 93.1K
SYMBOL res -384 208 R0
SYMATTR InstName R2
SYMATTR Value 3.01K
SYMBOL LED -608 112 R90
WINDOW 0 0 6 VLeft 0
WINDOW 3 35 8 VLeft 0
WINDOW 123 59 7 VLeft 0
SYMATTR InstName D1
SYMATTR Value LXHL-BW02
SYMATTR Value2 N=9
SYMATTR Description Diode
SYMATTR Type diode
SYMBOL res -1200 176 R0
SYMATTR InstName R3
SYMATTR Value 90.9K
SYMBOL res -1184 272 R90
WINDOW 0 0 56 VBottom 0
WINDOW 3 32 56 VTop 0
SYMATTR InstName R4
SYMATTR Value 49.9K
SYMBOL voltage -1408 -224 R0
SYMATTR InstName V1
SYMATTR Value 48
SYMBOL cap -448 -16 R0
SYMATTR InstName C1
SYMATTR Value 4.7µ
SYMBOL res -1376 176 R0
SYMATTR InstName R5
SYMATTR Value 10K
SYMBOL res -1360 352 R90
WINDOW 0 0 56 VBottom 0
WINDOW 3 32 56 VTop 0
SYMATTR InstName R6
SYMATTR Value 100K
SYMBOL res -592 272 R90
WINDOW 0 0 56 VBottom 0
WINDOW 3 32 56 VTop 0
SYMATTR InstName R7
SYMATTR Value 33.2K
SYMBOL res -592 352 R90
WINDOW 0 0 56 VBottom 0
WINDOW 3 32 56 VTop 0
SYMATTR InstName R8
SYMATTR Value 20K
SYMBOL schottky -688 48 M180
WINDOW 0 26 63 Left 0
WINDOW 3 24 0 Left 0
SYMATTR InstName D2
SYMATTR Value PMEG6010AED
SYMATTR Description Diode
SYMATTR Type diode
SYMBOL cap -688 -112 R0
SYMATTR InstName C2
SYMATTR Value .22µ
SYMBOL PowerProducts\\LT3597 -896 128 R0
SYMATTR InstName U1
SYMBOL res -1232 -224 R0
SYMATTR InstName R9
SYMATTR Value 270K
SYMBOL res -1232 -112 R0
SYMATTR InstName R10
SYMATTR Value 91K
SYMBOL cap -1328 -192 R0
SYMATTR InstName C3
SYMATTR Value 4.7µ
SYMBOL cap -592 -208 R0
SYMATTR InstName C4
SYMATTR Value 4.7µ
SYMBOL voltage -464 -224 R0
WINDOW 123 0 0 Left 0
WINDOW 39 0 0 Left 0
SYMATTR InstName V2
SYMATTR Value 5
SYMBOL voltage -1248 48 R90
WINDOW 0 -32 56 VBottom 0
WINDOW 3 32 56 VTop 0
WINDOW 123 74 56 VTop 0
WINDOW 39 53 56 VTop 0
SYMATTR InstName V3
SYMATTR Value PULSE(5 0 1.6m 1u 1u 400u 800u)
TEXT -584 424 Left 0 !.tran 3m startup
TEXT -912 -240 Bottom 0 ;LT3597 - 60V Triple Step-Down LED Driver \nInput: 48V       Output: 9 LEDs in Series, 100mA
TEXT -1472 440 Left 0 ;Note:\n  If the simulation model is not found please update with the "Sync Release" command from the "Tools" menu.\n  It remains the customer's responsibility to verify proper and reliable operation in the actual application.\n  Component substitution and printed circuit board layout may significantly affect circuit performance or reliability.\n  Contact your local sales representative for assistance. This circuit is distributed to customers only for use with LTC parts.\n  Copyright © 2011 Linear Technology Inc. All rights reserved.
