Version 4
SHEET 1 1196 680
WIRE 304 -80 176 -80
WIRE 544 -80 368 -80
WIRE -16 16 -160 16
WIRE 176 16 176 -80
WIRE 176 16 -16 16
WIRE 208 16 176 16
WIRE 336 16 288 16
WIRE 432 16 336 16
WIRE 544 16 544 -80
WIRE 544 16 496 16
WIRE -160 32 -160 16
WIRE -16 48 -16 16
WIRE 176 64 176 16
WIRE 336 64 336 16
WIRE 544 80 544 16
WIRE -160 128 -160 112
WIRE -16 128 -16 112
WIRE 112 144 48 144
WIRE 544 208 544 160
WIRE 544 208 400 208
WIRE 48 272 48 144
WIRE 112 272 48 272
WIRE 48 288 48 272
WIRE 48 368 48 352
WIRE 256 368 256 352
FLAG 256 368 0
FLAG 48 368 0
FLAG -160 128 0
FLAG -160 16 IN
FLAG -16 128 0
SYMBOL PowerProducts\\LT3590 256 208 R0
SYMATTR InstName U1
SYMBOL res 192 32 R270
WINDOW 0 32 56 VTop 0
WINDOW 3 0 56 VBottom 0
SYMATTR InstName R1
SYMATTR Value 4.02
SYMBOL LED 432 32 R270
WINDOW 0 75 35 VTop 0
WINDOW 3 0 32 VBottom 0
WINDOW 123 -35 32 VBottom 0
SYMATTR InstName D1
SYMATTR Value QTLP690C
SYMATTR Value2 N=10
SYMATTR Description Diode
SYMATTR Type diode
SYMBOL ind 528 64 R0
SYMATTR InstName L1
SYMATTR Value 330µ
SYMBOL cap 304 -64 R270
WINDOW 0 32 32 VTop 0
WINDOW 3 0 32 VBottom 0
SYMATTR InstName C1
SYMATTR Value 1µ
SYMBOL cap 32 288 R0
SYMATTR InstName C2
SYMATTR Value .1µ
SYMBOL voltage -160 16 R0
SYMATTR InstName V1
SYMATTR Value 48
SYMBOL cap -32 48 R0
SYMATTR InstName C3
SYMATTR Value .47µ
TEXT 440 344 Left 0 !.tran 300u startup
TEXT 280 -136 Bottom 0 ;LT3590 - 48V Buck-Mode LED Driver\nInput: 48V          Output: 50mA through 10 LEDs
TEXT -264 392 Left 0 ;Note:\n  If the simulation model is not found please update with the "Sync Release" command from the "Tools" menu.\n  It remains the customer's responsibility to verify proper and reliable operation in the actual application.\n  Component substitution and printed circuit board layout may significantly affect circuit performance or reliability.\n  Contact your local sales representative for assistance. This circuit is distributed to customers only for use with LTC parts.\n  Copyright © 2008 Linear Technology Inc. All rights reserved.
