Version 4
SHEET 1 1408 3280
WIRE -1104 -464 -1840 -464
WIRE -784 -464 -1104 -464
WIRE -1840 -448 -1840 -464
WIRE -784 -400 -784 -464
WIRE -1104 -384 -1104 -464
WIRE -1840 -352 -1840 -368
WIRE -896 -304 -1056 -304
WIRE -784 -304 -784 -320
WIRE -784 -304 -816 -304
WIRE -576 -304 -784 -304
WIRE -400 -304 -576 -304
WIRE -368 -304 -400 -304
WIRE -256 -304 -288 -304
WIRE -144 -304 -192 -304
WIRE 32 -304 -144 -304
WIRE 480 -304 448 -304
WIRE 544 -304 480 -304
WIRE 640 -304 624 -304
WIRE 736 -304 640 -304
WIRE 848 -304 736 -304
WIRE 944 -304 848 -304
WIRE -144 -288 -144 -304
WIRE 480 -288 480 -304
WIRE 640 -288 640 -304
WIRE 736 -288 736 -304
WIRE 848 -288 848 -304
WIRE 944 -288 944 -304
WIRE -784 -272 -784 -304
WIRE -576 -272 -576 -304
WIRE -400 -272 -400 -304
WIRE -144 -208 -144 -224
WIRE -80 -208 -144 -208
WIRE 32 -208 0 -208
WIRE 480 -208 480 -224
WIRE 480 -208 448 -208
WIRE -576 -192 -576 -208
WIRE -400 -192 -400 -208
WIRE 640 -192 640 -224
WIRE 736 -192 736 -208
WIRE 736 -192 640 -192
WIRE 848 -192 848 -224
WIRE 944 -192 944 -208
WIRE -1104 -176 -1104 -288
WIRE -784 -176 -784 -208
WIRE -784 -176 -1104 -176
WIRE 736 -176 736 -192
WIRE 640 -112 640 -192
WIRE 640 -112 448 -112
WIRE 736 -80 736 -96
WIRE -144 -16 -144 -208
WIRE 32 -16 -144 -16
WIRE 480 -16 448 -16
WIRE 544 -16 480 -16
WIRE 640 -16 624 -16
WIRE 736 -16 640 -16
WIRE 848 -16 736 -16
WIRE 944 -16 848 -16
WIRE 480 0 480 -16
WIRE 640 0 640 -16
WIRE 736 0 736 -16
WIRE 848 0 848 -16
WIRE 944 0 944 -16
WIRE -1104 80 -1104 -176
WIRE -144 80 -144 -16
WIRE -144 80 -1104 80
WIRE 32 80 -144 80
WIRE 480 80 480 64
WIRE 480 80 448 80
WIRE -1104 96 -1104 80
WIRE -144 96 -144 80
WIRE 640 96 640 64
WIRE 736 96 736 80
WIRE 736 96 640 96
WIRE 848 96 848 64
WIRE 944 96 944 80
WIRE 736 112 736 96
WIRE -1104 176 -1104 160
WIRE -144 176 -144 160
WIRE 32 176 16 176
WIRE 640 176 640 96
WIRE 640 176 448 176
WIRE 736 208 736 192
WIRE 16 272 16 176
WIRE 32 272 16 272
WIRE 480 272 448 272
WIRE 544 272 480 272
WIRE 640 272 624 272
WIRE 736 272 640 272
WIRE 848 272 736 272
WIRE 944 272 848 272
WIRE 480 288 480 272
WIRE 640 288 640 272
WIRE 736 288 736 272
WIRE 848 288 848 272
WIRE 944 288 944 272
WIRE -64 320 -80 320
WIRE 16 320 16 272
WIRE 16 320 0 320
WIRE 16 368 16 320
WIRE 32 368 16 368
WIRE 480 368 480 352
WIRE 480 368 448 368
WIRE 640 384 640 352
WIRE 736 384 736 368
WIRE 736 384 640 384
WIRE 848 384 848 352
WIRE 944 384 944 368
WIRE 736 400 736 384
WIRE 16 464 16 368
WIRE 32 464 16 464
WIRE 640 464 640 384
WIRE 640 464 448 464
WIRE 736 496 736 480
WIRE 480 560 448 560
WIRE 544 560 480 560
WIRE 640 560 624 560
WIRE 736 560 640 560
WIRE 848 560 736 560
WIRE 944 560 848 560
WIRE 480 576 480 560
WIRE 640 576 640 560
WIRE 736 576 736 560
WIRE 848 576 848 560
WIRE 944 576 944 560
WIRE -64 656 -80 656
WIRE 32 656 16 656
WIRE 480 656 480 640
WIRE 480 656 448 656
WIRE 640 672 640 640
WIRE 736 672 736 656
WIRE 736 672 640 672
WIRE 848 672 848 640
WIRE 944 672 944 656
WIRE 736 688 736 672
WIRE 32 752 16 752
WIRE 640 752 640 672
WIRE 640 752 448 752
WIRE 736 784 736 768
FLAG 16 752 0
FLAG -1840 -352 0
FLAG -80 320 0
FLAG -80 656 0
FLAG 736 -80 0
FLAG 848 -192 0
FLAG 736 784 0
FLAG 848 672 0
FLAG 736 496 0
FLAG 848 384 0
FLAG 736 208 0
FLAG 848 96 0
FLAG -400 -192 0
FLAG -576 -192 0
FLAG -144 176 0
FLAG -1104 176 0
FLAG 944 -192 0
FLAG 944 -304 OUT4
FLAG 944 672 0
FLAG 944 560 OUT1
FLAG 944 384 0
FLAG 944 272 OUT2
FLAG 944 96 0
FLAG 944 -16 OUT3
SYMBOL voltage -1840 -464 R0
WINDOW 123 0 0 Left 2
WINDOW 39 0 0 Left 2
SYMATTR InstName V1
SYMATTR Value PWL(0 0 20u 16 1m 16 +20u 180 +.1m 180 +20u 16)
SYMBOL ind -96 -192 R270
WINDOW 0 38 57 VTop 2
WINDOW 3 -6 60 VBottom 2
SYMATTR InstName L1
SYMATTR Value 10µ
SYMATTR SpiceLine Rser=50m
SYMBOL cap -160 -288 R0
SYMATTR InstName C1
SYMATTR Value 2.2µ
SYMATTR SpiceLine V=50 Irms=0 Rser=0.008 Lser=0
SYMBOL cap 0 304 R90
WINDOW 0 0 32 VBottom 2
WINDOW 3 32 32 VTop 2
SYMATTR InstName C2
SYMATTR Value .001µ
SYMBOL res 32 640 R90
WINDOW 0 0 56 VBottom 2
WINDOW 3 32 56 VTop 2
SYMATTR InstName R1
SYMATTR Value 18.2K
SYMBOL schottky 464 -224 M180
WINDOW 0 24 64 Left 2
WINDOW 3 24 0 Left 2
SYMATTR InstName D1
SYMATTR Value MBRS140
SYMATTR Description Diode
SYMATTR Type diode
SYMBOL ind 528 -288 R270
WINDOW 0 32 56 VTop 2
WINDOW 3 -2 56 VBottom 2
SYMATTR InstName L2
SYMATTR Value 8.2µ
SYMATTR SpiceLine Rser=50m
SYMBOL res 720 -304 R0
SYMATTR InstName R2
SYMATTR Value 53.6K
SYMBOL res 720 -192 R0
SYMATTR InstName R3
SYMATTR Value 10.2K
SYMBOL schottky 464 640 M180
WINDOW 0 24 64 Left 2
WINDOW 3 24 0 Left 2
SYMATTR InstName D2
SYMATTR Value MBRS140
SYMATTR Description Diode
SYMATTR Type diode
SYMBOL res 720 560 R0
SYMATTR InstName R4
SYMATTR Value 12.7K
SYMBOL res 720 672 R0
SYMATTR InstName R5
SYMATTR Value 10.2K
SYMBOL schottky 464 352 M180
WINDOW 0 24 64 Left 2
WINDOW 3 24 0 Left 2
SYMATTR InstName D3
SYMATTR Value MBRS140
SYMATTR Description Diode
SYMATTR Type diode
SYMBOL ind 528 288 R270
WINDOW 0 32 56 VTop 2
WINDOW 3 -1 55 VBottom 2
SYMATTR InstName L3
SYMATTR Value 4.2µ
SYMATTR SpiceLine Rser=50m
SYMBOL res 720 272 R0
SYMATTR InstName R6
SYMATTR Value 21.5K
SYMBOL res 720 384 R0
SYMATTR InstName R7
SYMATTR Value 10.2K
SYMBOL schottky 464 64 M180
WINDOW 0 24 64 Left 2
WINDOW 3 24 0 Left 2
SYMATTR InstName D4
SYMATTR Value MBRS140
SYMATTR Description Diode
SYMATTR Type diode
SYMBOL ind 528 0 R270
WINDOW 0 32 56 VTop 2
WINDOW 3 -4 53 VBottom 2
SYMATTR InstName L4
SYMATTR Value 8.2µ
SYMATTR SpiceLine Rser=50m
SYMBOL res 720 -16 R0
SYMATTR InstName R8
SYMATTR Value 31.6K
SYMBOL res 720 96 R0
SYMATTR InstName R9
SYMATTR Value 10.2K
SYMBOL schottky -192 -320 R90
WINDOW 0 0 32 VBottom 2
WINDOW 3 32 32 VTop 2
SYMATTR InstName D5
SYMATTR Value BAT54
SYMATTR Description Diode
SYMATTR Type diode
SYMBOL res -272 -320 R90
WINDOW 0 0 56 VBottom 2
WINDOW 3 32 56 VTop 2
SYMATTR InstName R10
SYMATTR Value 1K
SYMBOL cap -416 -272 R0
SYMATTR InstName C3
SYMATTR Value 0.01µ
SYMBOL res -800 -320 R90
WINDOW 0 0 56 VBottom 2
WINDOW 3 32 56 VTop 2
SYMATTR InstName R11
SYMATTR Value 10
SYMBOL res -800 -416 R0
SYMATTR InstName R12
SYMATTR Value 100K
SYMBOL cap -160 96 R0
SYMATTR InstName C4
SYMATTR Value 4.7µ
SYMBOL ind 528 576 R270
WINDOW 0 32 56 VTop 2
WINDOW 3 -3 56 VBottom 2
SYMATTR InstName L5
SYMATTR Value 4.2µ
SYMATTR SpiceLine Rser=50m
SYMBOL cap 624 576 R0
SYMATTR InstName C5
SYMATTR Value 100p
SYMBOL cap 624 288 R0
SYMATTR InstName C6
SYMATTR Value 82p
SYMBOL cap 624 0 R0
SYMATTR InstName C7
SYMATTR Value 43p
SYMBOL cap 624 -288 R0
SYMATTR InstName C8
SYMATTR Value 22p
SYMBOL cap 832 -288 R0
SYMATTR InstName C9
SYMATTR Value 10µ
SYMBOL cap 832 0 R0
SYMATTR InstName C10
SYMATTR Value 10µ
SYMBOL cap 832 288 R0
SYMATTR InstName C11
SYMATTR Value 22µ
SYMBOL cap 832 576 R0
SYMATTR InstName C12
SYMATTR Value 22µ
SYMBOL PowerProducts\\LT3504 240 224 R0
SYMATTR InstName U2
SYMBOL polcap -1120 96 R0
WINDOW 3 24 56 Left 2
SYMATTR Value 22µ
SYMATTR InstName C13
SYMATTR Description Capacitor
SYMATTR Type cap
SYMATTR SpiceLine V=50 Irms=170m Rser=1 Lser=0
SYMBOL zener -592 -208 M180
WINDOW 0 24 64 Left 2
WINDOW 3 24 0 Left 2
SYMATTR InstName D6
SYMATTR Value BZT52C36
SYMBOL zener -800 -208 M180
WINDOW 0 24 64 Left 2
WINDOW 3 24 0 Left 2
SYMATTR InstName D7
SYMATTR Value BZT52C6V8
SYMBOL res 928 -304 R0
SYMATTR InstName Rload4
SYMATTR Value 5
SYMBOL res 928 560 R0
SYMATTR InstName Rload1
SYMATTR Value 1.8
SYMBOL res 928 272 R0
SYMATTR InstName Rload2
SYMATTR Value 2.5
SYMBOL res 928 -16 R0
SYMATTR InstName Rload3
SYMATTR Value 3.3
SYMBOL nmos -1056 -384 M0
WINDOW 0 36 -11 Right 2
WINDOW 3 35 115 Right 2
SYMATTR InstName M1
SYMATTR Value BSC320N20NS3
TEXT 832 808 Left 2 !.tran 1.2m startup
TEXT -640 856 Left 2 !.model BZT52C36 D(Is=10n Rs=50 N=1 Cjo=19p VJ=1 M=.33 tt=50n BV=35 IBV=1e-8 NBV=3 Vpk=36 mfg=Diodes_Inc. type=Zener)\n.model BZT52C6V8  D(Is=30p  Rs=3.5 N=1 Cjo=30p  tt=50n BV=6 IBV=1n NBV=2 Vpk=6.8 mfg=Diodes_Inc. type=Zener)
TEXT -632 912 Left 2 ;Notes:\n  A smaller SS capacitor is being used to reduce simulation time. Typical value should be 0.1µF.\n  If the simulation model is not found please update with the "Sync Release" command from the "Tools" menu.\n  It remains the customer's responsibility to verify proper and reliable operation in the actual application.\n  Component substitution and printed circuit board layout may significantly affect circuit performance or reliability.\n  Contact your local sales representative for assistance. This circuit is distributed to customers only for use with LTC parts.\n  Copyright © 2013 Linear Technology Inc. All rights reserved.
TEXT -48 -392 Bottom 2 ;LT3504 - Quad 40V/1A Step-Down Switching Regulator with 100% Duty Cycle Operation\nQuad Buck Regulator with 180V Surge Protection\nInput: 3.2V to 30V (180V Surge Protection)    Outputs: 5V, 3.3V, 2.5V & 1.8V @ 1A, Fsw = 1MHz
