Version 4
SHEET 1 3000 1296
WIRE -400 -512 -528 -512
WIRE -288 -512 -336 -512
WIRE -208 -512 -288 -512
WIRE -144 -512 -208 -512
WIRE -64 -512 -144 -512
WIRE 16 -512 -64 -512
WIRE 128 -512 16 -512
WIRE 224 -512 208 -512
WIRE 368 -512 224 -512
WIRE 416 -512 368 -512
WIRE 512 -512 416 -512
WIRE 16 -496 16 -512
WIRE 512 -496 512 -512
WIRE -528 -480 -528 -512
WIRE 416 -480 416 -512
WIRE -64 -416 -64 -512
WIRE 16 -416 16 -432
WIRE 128 -384 128 -512
WIRE 224 -384 224 -512
WIRE 416 -384 416 -416
WIRE 512 -384 512 -416
WIRE -528 -368 -528 -400
WIRE -64 -320 -64 -336
WIRE -64 -320 -448 -320
WIRE 16 -320 -64 -320
WIRE 368 -320 368 -512
WIRE 368 -320 336 -320
WIRE -144 -304 -144 -512
WIRE -496 -240 -640 -240
WIRE -208 -224 -208 -512
WIRE 16 -224 -144 -224
WIRE 432 -224 336 -224
WIRE 560 -224 432 -224
WIRE -640 -208 -640 -240
WIRE -448 -208 -448 -224
WIRE 432 -208 432 -224
WIRE 560 -176 560 -224
WIRE -288 -128 -288 -512
WIRE -208 -128 -208 -144
WIRE 16 -128 -208 -128
WIRE 432 -128 432 -144
WIRE 432 -128 336 -128
WIRE 432 -112 432 -128
WIRE -640 -96 -640 -128
WIRE -288 -32 -288 -48
WIRE 16 -32 -288 -32
WIRE 560 -32 560 -96
WIRE 560 -32 336 -32
WIRE 16 64 -16 64
WIRE 432 64 432 -48
WIRE 432 64 336 64
WIRE 560 64 560 48
WIRE 560 64 432 64
WIRE 688 64 560 64
WIRE 560 80 560 64
WIRE 688 80 688 64
WIRE -80 160 -96 160
WIRE 16 160 0 160
WIRE 496 160 336 160
WIRE 560 176 560 144
WIRE 688 176 688 160
WIRE 496 192 496 160
WIRE -64 256 -96 256
WIRE 16 256 0 256
WIRE 352 256 336 256
WIRE 432 256 416 256
WIRE 496 304 496 272
WIRE 176 352 176 320
FLAG 416 -384 0
FLAG -96 160 0
FLAG 176 352 0
FLAG 560 176 0
FLAG 688 176 0
FLAG 432 256 0
FLAG -96 256 0
FLAG 512 -384 0
FLAG 496 304 0
FLAG -448 -208 0
FLAG -528 -368 0
FLAG -640 -96 0
FLAG 16 -416 0
FLAG -528 -512 IN
FLAG 688 64 OUT
SYMBOL res 544 -48 R0
SYMATTR InstName R1
SYMATTR Value 24m
SYMBOL ind 544 -192 R0
SYMATTR InstName L1
SYMATTR Value 3.3µ
SYMATTR SpiceLine Rser=0.0172 Rpar=2464 Cpar=1.81p
SYMBOL cap 416 -208 R0
SYMATTR Value 1µ
SYMATTR InstName C1
SYMATTR SpiceLine Rser=0.004
SYMBOL res -80 -432 R0
SYMATTR InstName R2
SYMATTR Value 50K
SYMBOL res 16 144 R90
WINDOW 0 0 56 VBottom 2
WINDOW 3 32 56 VTop 2
SYMATTR InstName R3
SYMATTR Value 54.9K
SYMBOL cap 400 -480 R0
SYMATTR Value 22µ
SYMATTR SpiceLine Rser=10m
SYMATTR InstName C2
SYMBOL schottky 416 -48 M180
WINDOW 0 24 64 Left 2
WINDOW 3 24 0 Left 2
SYMATTR InstName D1
SYMATTR Value 1N5819
SYMATTR Description Diode
SYMATTR Type diode
SYMBOL cap 544 80 R0
SYMATTR Value 100µF
SYMATTR SpiceLine Rser=20m
SYMATTR InstName C3
SYMBOL Misc\\battery 688 64 R0
SYMATTR InstName BAT
SYMATTR Value 7
SYMATTR Value2 rser=20m
SYMBOL res -160 -320 R0
SYMATTR InstName R4
SYMATTR Value 50K
SYMBOL cap 352 272 R270
WINDOW 0 32 32 VTop 2
WINDOW 3 0 32 VBottom 2
SYMATTR InstName C4
SYMATTR Value .03µ
SYMBOL cap 0 240 R90
WINDOW 0 0 32 VBottom 2
WINDOW 3 32 32 VTop 2
SYMATTR InstName C5
SYMATTR Value .68µ
SYMBOL res 112 -496 R270
WINDOW 0 32 56 VTop 2
WINDOW 3 0 56 VBottom 2
SYMATTR InstName R5
SYMATTR Value 16m
SYMBOL current 512 -496 R0
SYMATTR InstName Iload
SYMATTR Value PWL(0 0 0.8m 0 1m 4 2m 7)
SYMBOL res 480 176 R0
SYMATTR InstName R6
SYMATTR Value R=({R0}*exp({Beta}*( (1/{temp+273})- (1/{T0}) ) ))
SYMBOL res -224 -240 R0
SYMATTR InstName R7
SYMATTR Value 50K
SYMBOL res -304 -144 R0
SYMATTR InstName R8
SYMATTR Value 50K
SYMBOL voltage -528 -496 R0
SYMATTR InstName V2
SYMATTR Value 15
SYMBOL voltage -640 -224 R0
WINDOW 123 24 138 Left 2
WINDOW 39 24 117 Left 2
SYMATTR InstName V3
SYMATTR Value pulse 5 0  50u 1n 1n 1 1
SYMBOL cap 0 -496 R0
SYMATTR Value 1µ
SYMATTR SpiceLine Rser=5m
SYMATTR InstName C6
SYMBOL schottky -400 -496 R270
WINDOW 0 32 32 VTop 2
WINDOW 3 0 32 VBottom 2
SYMATTR InstName D2
SYMATTR Value B540C
SYMATTR Description Diode
SYMATTR Type diode
SYMBOL PowerProducts\\LT3651-8.4 176 -32 R0
SYMATTR InstName U1
SYMBOL nmos -496 -320 R0
SYMATTR InstName Q1
SYMATTR Value NDC7002N
TEXT 704 328 Left 2 !.tran 2m startup
TEXT 800 80 Left 1 ;R6: 10k thermistor @ B=3380\n0C    27.219k    1.3609V  \n5C    22.021k    1.101V\n35C  6.948k      0.347V\n40C  5.834k     0.2917V\n45C  4.917k    0.2458V\n50C  4.161k    0.208V
TEXT 704 296 Left 2 !.param R0=10k Beta=3380 T0=298
TEXT 200 -560 Bottom 2 ;LT3651-8.4 - Monolithic 4A High Voltage 2-Cell Li-Ion Battery Charger\n2-Cell Li-Ion Charger with Input Current Limit & Charge Timeout\nInput: 9V to 32V, 6.2 Input Current Limit    Outputs: 8.4V @ 4A, 3hr Timeout
TEXT -360 368 Left 2 ;Notes:\n  A smaller SS capacitor is being used to reduce simulation time. Typical value should be 0.47µF.\n  If the simulation model is not found please update with the "Sync Release" command from the "Tools" menu.\n  It remains the customer's responsibility to verify proper and reliable operation in the actual application.\n  Component substitution and printed circuit board layout may significantly affect circuit performance or reliability.\n  Contact your local sales representative for assistance. This circuit is distributed to customers only for use with LTC parts.\n  Copyright © 2013 Linear Technology Inc. All rights reserved.
