Version 4
SHEET 1 2020 764
WIRE -144 -32 -240 -32
WIRE -64 -32 -144 -32
WIRE -32 -32 -64 -32
WIRE 592 -32 256 -32
WIRE -240 -16 -240 -32
WIRE -144 -16 -144 -32
WIRE -64 64 -64 -32
WIRE -32 64 -64 64
WIRE 288 64 256 64
WIRE -240 80 -240 64
WIRE -144 80 -144 48
WIRE 288 80 288 64
WIRE -128 160 -144 160
WIRE -32 160 -48 160
WIRE 288 160 288 144
WIRE 288 160 256 160
WIRE 368 160 288 160
WIRE 512 160 448 160
WIRE 592 160 592 -32
WIRE 592 160 512 160
WIRE 688 160 592 160
WIRE 288 176 288 160
WIRE 592 176 592 160
WIRE 688 176 688 160
WIRE -128 256 -144 256
WIRE -32 256 -48 256
WIRE 288 256 288 240
WIRE 288 256 256 256
WIRE 512 256 512 160
WIRE 592 272 592 240
WIRE 688 272 688 256
WIRE -112 352 -144 352
WIRE -32 352 -48 352
WIRE 512 352 512 336
WIRE 512 352 256 352
WIRE 512 368 512 352
WIRE 112 416 112 400
WIRE 512 464 512 448
FLAG 112 416 0
FLAG -144 160 0
FLAG 512 464 0
FLAG 592 272 0
FLAG 688 272 0
FLAG -240 80 0
FLAG -240 -32 IN
FLAG 688 160 OUT
FLAG -144 80 0
FLAG -144 256 0
FLAG -144 352 0
SYMBOL ind 352 176 R270
WINDOW 0 32 56 VTop 2
WINDOW 3 5 56 VBottom 2
SYMATTR InstName L1
SYMATTR Value 6.8µ
SYMBOL res 496 240 R0
SYMATTR InstName R1
SYMATTR Value 31.6K
SYMBOL res 496 352 R0
SYMATTR InstName R2
SYMATTR Value 10K
SYMBOL res -32 144 R90
WINDOW 0 0 56 VBottom 2
WINDOW 3 32 56 VTop 2
SYMATTR InstName R3
SYMATTR Value 61.9K
SYMBOL cap 576 176 R0
SYMATTR InstName C1
SYMATTR Value 22µ
SYMBOL voltage -240 -32 R0
WINDOW 123 0 0 Left 2
WINDOW 39 0 0 Left 2
SYMATTR InstName V1
SYMATTR Value 12
SYMBOL cap -160 -16 R0
SYMATTR InstName C2
SYMATTR Value 2.2µ
SYMBOL PowerProducts\\LT3686A 112 160 R0
SYMATTR InstName U1
SYMBOL schottky 272 240 M180
WINDOW 0 24 64 Left 2
WINDOW 3 24 0 Left 2
SYMATTR InstName D1
SYMATTR Value MBRS140
SYMATTR Description Diode
SYMATTR Type diode
SYMBOL cap 272 80 R0
WINDOW 3 24 55 Left 2
SYMATTR Value 0.22µ
SYMATTR InstName C3
SYMBOL cap -48 336 R90
WINDOW 0 0 32 VBottom 2
WINDOW 3 32 32 VTop 2
SYMATTR InstName C4
SYMATTR Value 1n
SYMBOL res -32 240 R90
WINDOW 0 0 56 VBottom 2
WINDOW 3 32 56 VTop 2
SYMATTR InstName R4
SYMATTR Value 10K
SYMBOL res 672 160 R0
SYMATTR InstName Rload
SYMATTR Value 2.75
TEXT -400 480 Left 2 ;Note:\n  If the simulation model is not found please update with the "Sync Release" command from the "Tools" menu.\n  It remains the customer's responsibility to verify proper and reliable operation in the actual application.\n  Component substitution and printed circuit board layout may significantly affect circuit performance or reliability.\n  Contact your local sales representative for assistance. This circuit is distributed to customers only for use with LTC parts.\n  Copyright © 2011 Linear Technology Inc. All rights reserved.
TEXT 120 -72 Bottom 2 ;LT3686A - 37V, 1.2A Step-Down Regulator \nInput: 12V       Output: 3.3V @ 1.2A
TEXT 632 448 Left 2 !.tran 750u startup
