Version 4
SHEET 1 2624 708
WIRE 400 -160 400 -176
WIRE -176 -64 -288 -64
WIRE -80 -64 -176 -64
WIRE 80 -64 -16 -64
WIRE 400 -64 400 -96
WIRE 400 -64 368 -64
WIRE 448 -64 400 -64
WIRE 560 -64 528 -64
WIRE 592 -64 560 -64
WIRE 704 -64 672 -64
WIRE 768 -64 704 -64
WIRE -288 -48 -288 -64
WIRE 400 -48 400 -64
WIRE 768 -48 768 -64
WIRE -176 32 -176 -64
WIRE -128 32 -176 32
WIRE -16 32 -48 32
WIRE 80 32 -16 32
WIRE 400 32 400 16
WIRE 400 32 368 32
WIRE 448 32 400 32
WIRE 592 32 512 32
WIRE 704 32 704 -64
WIRE 704 32 656 32
WIRE -288 48 -288 32
WIRE -176 48 -176 32
WIRE -16 48 -16 32
WIRE 768 48 768 32
WIRE -176 128 -176 112
WIRE 80 128 -16 128
WIRE 560 128 560 -64
WIRE 560 128 368 128
WIRE -16 144 -16 128
WIRE 560 224 368 224
WIRE 704 224 704 32
WIRE 704 224 560 224
WIRE 704 256 704 224
WIRE 560 272 560 224
WIRE 704 352 704 320
WIRE 80 416 64 416
WIRE 400 416 368 416
WIRE 560 416 560 352
WIRE 560 416 480 416
WIRE 560 432 560 416
WIRE 704 448 704 432
WIRE 224 480 224 464
WIRE 560 528 560 512
FLAG 224 480 0
FLAG 64 416 0
FLAG -288 48 0
FLAG -288 -64 IN
FLAG 400 -176 0
FLAG -176 128 0
FLAG -16 224 0
FLAG 560 528 0
FLAG 704 448 0
FLAG 768 -64 OUT
FLAG 768 48 0
SYMBOL voltage -288 -64 R0
WINDOW 123 0 0 Left 2
WINDOW 39 0 0 Left 2
SYMATTR InstName V1
SYMATTR Value 25
SYMBOL ind 432 -48 R270
WINDOW 0 32 56 VTop 2
WINDOW 3 5 56 VBottom 2
SYMATTR InstName L1
SYMATTR Value 20µ
SYMATTR SpiceLine Rser=20m Rpar=10K
SYMBOL res 576 -48 R270
WINDOW 0 32 56 VTop 2
WINDOW 3 0 56 VBottom 2
SYMATTR InstName R1
SYMATTR Value 68m
SYMBOL cap 384 -48 R0
SYMATTR InstName C1
SYMATTR Value 1µ
SYMBOL diode 656 16 R90
WINDOW 0 0 32 VBottom 2
WINDOW 3 32 32 VTop 2
SYMATTR InstName D1
SYMATTR Value 1N4148
SYMBOL schottky 384 -160 R0
WINDOW 3 36 42 Left 2
WINDOW 0 40 15 Left 2
SYMATTR Value MBRS340
SYMATTR InstName D2
SYMATTR Description Diode
SYMATTR Type diode
SYMBOL PowerProducts\\LT3652HV 224 176 R0
SYMATTR InstName U1
SYMBOL schottky -80 -48 R270
WINDOW 0 32 32 VTop 2
WINDOW 3 0 32 VBottom 2
SYMATTR InstName D3
SYMATTR Value MBRS340
SYMATTR Description Diode
SYMATTR Type diode
SYMBOL cap -192 48 R0
SYMATTR InstName C2
SYMATTR Value 10µ
SYMBOL res -32 16 R90
WINDOW 0 0 56 VBottom 2
WINDOW 3 32 56 VTop 2
SYMATTR InstName R2
SYMATTR Value 750K
SYMBOL res -32 32 R0
SYMATTR InstName R3
SYMATTR Value 44.2K
SYMBOL res -32 128 R0
SYMATTR InstName R4
SYMATTR Value 51.1K
SYMBOL res 496 400 R90
WINDOW 0 0 56 VBottom 2
WINDOW 3 32 56 VTop 2
SYMATTR InstName R5
SYMATTR Value 127K
SYMBOL res 544 256 R0
SYMATTR InstName R6
SYMATTR Value 665K
SYMBOL res 544 416 R0
SYMATTR InstName R7
SYMATTR Value 150K
SYMBOL cap 688 256 R0
SYMATTR InstName C3
SYMATTR Value .2m
SYMATTR SpiceLine Rser=5m
SYMBOL voltage 704 336 R0
WINDOW 123 0 0 Left 2
WINDOW 39 0 0 Left 2
SYMATTR InstName V2
SYMATTR Value 12.25
SYMBOL zener 448 48 R270
WINDOW 0 36 32 VTop 2
WINDOW 3 -4 32 VBottom 2
SYMATTR InstName D4
SYMATTR Value BZX84C10L
SYMATTR Description Diode
SYMATTR Type diode
SYMBOL res 752 -64 R0
SYMATTR InstName Rload
SYMATTR Value 100
TEXT 640 528 Left 2 !.tran 5m startup
TEXT 272 -200 Bottom 2 ;LT3652HV - Power Tracking 2A Battery Charger\nWall Adapter to 5-Cell LiFePO4 Battery Charger\nInput: 19V to 32V     Output: 18V @ 1.5A with C/10 Termination
TEXT -392 544 Left 2 ;Notes: \n  If the simulation model is not found please update with the "Sync Release" command from the "Tools" menu.\n  It remains the customer's responsibility to verify proper and reliable operation in the actual application.\n  Component substitution and printed circuit board layout may significantly affect circuit performance or reliability.\n  Contact your local sales representative for assistance. This circuit is distributed to customers only for use with LTC parts.\n  Copyright © 2014 Linear Technology Inc.  All rights reserved.
TEXT 776 264 Left 2 ;Battery
RECTANGLE Normal 880 480 656 240 2
