Version 4
SHEET 1 1492 932
WIRE 400 -192 400 -208
WIRE -128 -64 -224 -64
WIRE 0 -64 -64 -64
WIRE 64 -64 0 -64
WIRE 80 -64 64 -64
WIRE 400 -64 400 -128
WIRE 400 -64 368 -64
WIRE 448 -64 400 -64
WIRE 576 -64 528 -64
WIRE 592 -64 576 -64
WIRE 688 -64 672 -64
WIRE 752 -64 688 -64
WIRE 848 -64 752 -64
WIRE 960 -64 848 -64
WIRE -224 -48 -224 -64
WIRE 0 -48 0 -64
WIRE 400 -48 400 -64
WIRE 752 -48 752 -64
WIRE 848 -48 848 -64
WIRE 960 -48 960 -64
WIRE 64 32 64 -64
WIRE 80 32 64 32
WIRE 400 32 400 16
WIRE 400 32 368 32
WIRE 464 32 400 32
WIRE 688 32 688 -64
WIRE 688 32 528 32
WIRE 752 32 752 16
WIRE 848 32 848 16
WIRE 960 32 960 16
WIRE -224 48 -224 32
WIRE 0 48 0 16
WIRE 64 128 64 32
WIRE 80 128 64 128
WIRE 576 128 576 -64
WIRE 576 128 368 128
WIRE 688 224 688 32
WIRE 688 224 368 224
WIRE -16 416 -32 416
WIRE 80 416 48 416
WIRE 400 416 368 416
WIRE 496 416 464 416
WIRE 224 480 224 464
FLAG 224 480 0
FLAG 400 -208 0
FLAG 0 48 0
FLAG -32 416 0
FLAG 752 32 0
FLAG 848 32 0
FLAG 960 32 0
FLAG -224 -64 IN
FLAG -224 48 0
FLAG 960 -64 OUT
FLAG 496 416 0
SYMBOL res 576 -48 R270
WINDOW 0 32 56 VTop 2
WINDOW 3 0 56 VBottom 2
SYMATTR InstName R1
SYMATTR Value .05
SYMBOL cap 384 -48 R0
SYMATTR InstName C1
SYMATTR Value 1µ
SYMBOL diode 528 16 R90
WINDOW 0 0 32 VBottom 2
WINDOW 3 32 32 VTop 2
SYMATTR InstName D1
SYMATTR Value 1N914
SYMBOL schottky 384 -192 R0
SYMATTR Value MBRS340
SYMATTR InstName D2
SYMATTR Description Diode
SYMATTR Type diode
SYMBOL cap 736 -48 R0
SYMATTR InstName C2
SYMATTR Value 10µ
SYMATTR SpiceLine Rser=0.003
SYMBOL cap -16 -48 R0
SYMATTR InstName C4
SYMATTR Value 10µ
SYMBOL cap 48 400 R90
WINDOW 0 0 32 VBottom 2
WINDOW 3 32 32 VTop 2
SYMATTR InstName C5
SYMATTR Value 0.68µ
SYMBOL ind 432 -48 R270
WINDOW 0 32 56 VTop 2
WINDOW 3 5 56 VBottom 2
SYMATTR InstName L1
SYMATTR Value 10µ
SYMATTR SpiceLine Rser=0.11 Rpar=21068
SYMBOL cap 832 -48 R0
SYMATTR InstName C6
SYMATTR Value 100µ
SYMATTR SpiceLine Rser=.01
SYMBOL cap 944 -48 R0
WINDOW 39 24 84 Left 2
SYMATTR InstName C3
SYMATTR Value 0.8m
SYMBOL voltage -224 -64 R0
WINDOW 123 0 0 Left 2
WINDOW 39 0 0 Left 2
SYMATTR InstName V1
SYMATTR Value 12
SYMBOL cap 464 400 R90
WINDOW 0 0 32 VBottom 2
WINDOW 3 32 32 VTop 2
SYMATTR InstName C7
SYMATTR Value 0.01µ
SYMBOL schottky -128 -48 R270
WINDOW 3 0 32 VBottom 2
WINDOW 0 32 32 VTop 2
SYMATTR Value MBRS340
SYMATTR InstName D3
SYMATTR Description Diode
SYMATTR Type diode
SYMBOL PowerProducts\\LT3650-8.4 224 176 R0
SYMATTR InstName U1
TEXT 752 384 Left 2 !.tran 3m
TEXT 224 -232 Bottom 2 ;LT3650-8.4 - High Voltage 2 Amp Monolithic Li-Ion Battery Charger\n2 Cell Li-Ion 2A Charger\nInput: 12V to 32V     Output: Up to 8.4V @ 2A
TEXT -352 520 Left 2 ;Note:\n  If the simulation model is not found please update with the "Sync Release" command from the "Tools" menu.\n  It remains the customer's responsibility to verify proper and reliable operation in the actual application.\n  Component substitution and printed circuit board layout may significantly affect circuit performance or reliability\n  Contact your local sales representative for assistance. This circuit is distributed to customers only for use with LTC parts\n  Copyright © 2012 Linear Technology Inc. All rights reserved.
TEXT 840 120 Left 2 !.ic V(OUT)=5.6
