Version 4
SHEET 1 2020 764
WIRE 288 -80 128 -80
WIRE 288 -64 288 -80
WIRE 128 -32 128 -80
WIRE -32 16 -128 16
WIRE 0 16 -32 16
WIRE 288 16 288 0
WIRE 288 16 256 16
WIRE 400 16 288 16
WIRE -128 32 -128 16
WIRE 288 32 288 16
WIRE 400 32 400 16
WIRE 400 112 400 96
WIRE -128 128 -128 112
WIRE -32 128 -32 16
WIRE 0 128 -32 128
WIRE 288 128 288 112
WIRE 288 128 256 128
WIRE 288 224 256 224
WIRE 352 224 288 224
WIRE 448 224 352 224
WIRE 352 240 352 224
WIRE 448 240 448 224
WIRE -96 336 -112 336
WIRE 0 336 -16 336
WIRE 288 336 288 224
WIRE 288 336 256 336
WIRE 352 336 352 304
WIRE 448 336 448 320
WIRE 128 400 128 384
FLAG -128 128 0
FLAG -112 336 0
FLAG 352 336 0
FLAG 400 112 0
FLAG 128 400 0
FLAG 448 224 OUT
FLAG -128 16 IN
FLAG 448 336 0
SYMBOL voltage -128 16 R0
WINDOW 3 22 101 Left 0
WINDOW 123 0 0 Left 0
WINDOW 39 0 0 Left 0
SYMATTR Value 12
SYMATTR InstName V1
SYMBOL ind 272 16 R0
SYMATTR InstName L1
SYMATTR Value 7.8µ
SYMATTR SpiceLine Ipk=1.6A Rser=0.053
SYMBOL schottky 384 96 M180
WINDOW 0 24 72 Left 0
WINDOW 3 24 0 Left 0
SYMATTR InstName D1
SYMATTR Value SS24
SYMBOL cap 272 0 M180
WINDOW 0 24 64 Left 0
WINDOW 3 24 8 Left 0
SYMATTR InstName C1
SYMATTR Value 0.1µ
SYMATTR SpiceLine V=16V
SYMBOL cap 336 240 R0
SYMATTR InstName C2
SYMATTR Value 47µ
SYMATTR SpiceLine V=10V
SYMBOL res 0 320 R90
WINDOW 0 0 56 VBottom 0
WINDOW 3 32 56 VTop 0
SYMATTR InstName R1
SYMATTR Value 28.7K
SYMBOL res 432 224 R0
SYMATTR InstName Rload
SYMATTR Value 2.67
SYMBOL PowerProducts\\LT3663-3.3 128 176 R0
SYMATTR InstName U1
TEXT 456 392 Left 0 !.tran 1m startup
TEXT -424 408 Left 0 ;Note:\n  If the simulation model is not found please update with the "Sync Release" command from the "Tools" menu.\n  It remains the customer's responsibility to verify proper and reliable operation in the actual application.\n  Component substitution and printed circuit board layout may significantly affect circuit performance or reliability.\n  Contact your local sales representative for assistance. This circuit is distributed to customers only for use with LTC parts.\n  Copyright © 2010 Linear Technology Inc. All rights reserved.
TEXT 128 -88 Bottom 0 ;LT3663-3.3,  1.2A, 1.0MHz Step-Down Regulator with Output Current Limit\nInput: 12V       Output: 3.3V @ 1.2A
