Version 4
SHEET 1 2240 932
WIRE 1584 -304 816 -304
WIRE 688 -288 576 -288
WIRE 1056 -288 688 -288
WIRE 1184 -288 1056 -288
WIRE 576 -272 576 -288
WIRE 688 -272 688 -288
WIRE 1056 -272 1056 -288
WIRE 1184 -272 1184 -288
WIRE 816 -208 816 -304
WIRE 832 -208 816 -208
WIRE 928 -208 912 -208
WIRE 1344 -208 1312 -208
WIRE 1456 -208 1344 -208
WIRE 1584 -208 1584 -304
WIRE 1584 -208 1520 -208
WIRE 1344 -192 1344 -208
WIRE 576 -176 576 -192
WIRE 688 -176 688 -208
WIRE 928 -112 912 -112
WIRE 1344 -112 1344 -128
WIRE 1344 -112 1312 -112
WIRE 816 -16 816 -208
WIRE 832 -16 816 -16
WIRE 928 -16 912 -16
WIRE 1344 -16 1312 -16
WIRE 1440 -16 1344 -16
WIRE 1584 -16 1584 -208
WIRE 1584 -16 1520 -16
WIRE 1696 -16 1584 -16
WIRE 1792 -16 1696 -16
WIRE 1344 0 1344 -16
WIRE 1696 0 1696 -16
WIRE 1792 0 1792 -16
WIRE 1584 48 1584 -16
WIRE 1584 48 1504 48
WIRE 1584 64 1584 48
WIRE 816 80 816 -16
WIRE 832 80 816 80
WIRE 928 80 912 80
WIRE 1344 80 1344 64
WIRE 1344 80 1312 80
WIRE 1696 96 1696 64
WIRE 1792 96 1792 80
WIRE 816 176 816 80
WIRE 832 176 816 176
WIRE 928 176 912 176
WIRE 1584 176 1584 144
WIRE 1584 176 1312 176
WIRE 1584 192 1584 176
WIRE 1344 272 1312 272
WIRE 1504 272 1504 48
WIRE 1504 272 1344 272
WIRE 1584 288 1584 272
WIRE 848 368 816 368
WIRE 928 368 912 368
WIRE 1344 368 1344 272
WIRE 1344 368 1312 368
WIRE 848 464 816 464
WIRE 928 464 912 464
WIRE 1360 464 1312 464
WIRE 1488 464 1440 464
WIRE 1616 464 1488 464
WIRE 1712 464 1616 464
WIRE 1616 480 1616 464
WIRE 1712 480 1712 464
WIRE 832 560 816 560
WIRE 928 560 912 560
WIRE 1488 560 1488 544
WIRE 1488 560 1312 560
WIRE 1488 576 1488 560
WIRE 1616 576 1616 544
WIRE 1712 576 1712 560
WIRE 1024 640 1024 624
WIRE 1216 640 1216 624
WIRE 1120 656 1120 624
WIRE 1488 672 1488 656
WIRE 1024 720 1024 704
WIRE 1216 720 1216 704
FLAG 1120 656 0
FLAG 1024 720 0
FLAG 1216 720 0
FLAG 576 -176 0
FLAG 816 560 0
FLAG 816 464 0
FLAG 816 368 0
FLAG 1584 288 0
FLAG 1696 96 0
FLAG 1792 96 0
FLAG 1792 -16 OUT1
FLAG 1488 672 0
FLAG 1616 576 0
FLAG 1712 576 0
FLAG 1712 464 OUT2
FLAG 576 -288 IN
FLAG 912 -112 0
FLAG 688 -176 0
SYMBOL PowerProducts\\LT3640 1120 176 R0
SYMATTR InstName U1
SYMBOL cap 1008 640 R0
SYMATTR InstName C1
SYMATTR Value 1000p
SYMBOL voltage 576 -288 R0
WINDOW 123 24 138 Left 2
WINDOW 39 24 117 Left 2
SYMATTR InstName V1
SYMATTR Value 12
SYMBOL res 928 544 R90
WINDOW 0 0 56 VBottom 2
WINDOW 3 32 56 VTop 2
SYMATTR InstName R1
SYMATTR Value 32.4K
SYMBOL cap 912 448 R90
WINDOW 0 0 32 VBottom 2
WINDOW 3 32 32 VTop 2
SYMATTR InstName C3
SYMATTR Value 15p
SYMBOL cap 912 352 R90
WINDOW 0 0 32 VBottom 2
WINDOW 3 32 32 VTop 2
SYMATTR InstName C4
SYMATTR Value 15p
SYMBOL schottky 1328 64 M180
WINDOW 0 26 66 Left 2
WINDOW 3 24 0 Left 2
SYMATTR InstName D1
SYMATTR Value SS24
SYMATTR Description Diode
SYMATTR Type diode
SYMBOL ind 1424 0 R270
WINDOW 0 32 56 VTop 2
WINDOW 3 5 56 VBottom 2
SYMATTR InstName L1
SYMATTR Value 3.3µ
SYMATTR SpiceLine Rser=5m
SYMBOL res 1568 48 R0
SYMATTR InstName R2
SYMATTR Value 80.6K
SYMBOL res 1568 176 R0
SYMATTR InstName R3
SYMATTR Value 49.9K
SYMBOL cap 1680 0 R0
SYMATTR InstName C5
SYMATTR Value 22µ
SYMATTR SpiceLine Rser=5m
SYMBOL cap 1328 -192 R0
SYMATTR InstName C6
SYMATTR Value .1µ
SYMBOL schottky 1520 -224 R90
WINDOW 0 0 32 VBottom 2
WINDOW 3 32 32 VTop 2
SYMATTR InstName D2
SYMATTR Value PMEG4005AEA
SYMATTR Description Diode
SYMATTR Type diode
SYMBOL ind 1344 480 R270
WINDOW 0 32 56 VTop 2
WINDOW 3 5 56 VBottom 2
SYMATTR InstName L2
SYMATTR Value 1µ
SYMATTR SpiceLine Rser=5m
SYMBOL res 1472 448 R0
SYMATTR InstName R4
SYMATTR Value 49.9K
SYMBOL res 1472 560 R0
SYMATTR InstName R5
SYMATTR Value 49.9K
SYMBOL cap 1600 480 R0
SYMATTR InstName C7
SYMATTR Value 22µ
SYMATTR SpiceLine Rser=5m
SYMBOL cap 1200 640 R0
SYMATTR InstName C2
SYMATTR Value 1000p
SYMBOL cap 672 -272 R0
SYMATTR InstName C8
SYMATTR Value 2.2µ
SYMATTR SpiceLine Rser=5m
SYMBOL res 928 -224 R90
WINDOW 0 0 56 VBottom 2
WINDOW 3 32 56 VTop 2
SYMATTR InstName R8
SYMATTR Value 100k
SYMBOL res 928 -32 R90
WINDOW 0 0 56 VBottom 2
WINDOW 3 32 56 VTop 2
SYMATTR InstName R6
SYMATTR Value 100K
SYMBOL res 928 64 R90
WINDOW 0 0 56 VBottom 2
WINDOW 3 32 56 VTop 2
SYMATTR InstName R7
SYMATTR Value 100K
SYMBOL res 928 160 R90
WINDOW 0 0 56 VBottom 2
WINDOW 3 32 56 VTop 2
SYMATTR InstName R9
SYMATTR Value 100K
SYMBOL res 1776 -16 R0
SYMATTR InstName Rload1
SYMATTR Value 4.125
SYMBOL res 1696 464 R0
SYMATTR InstName Rload2
SYMATTR Value 1.2
TEXT 1656 664 Left 2 !.tran 2m startup
TEXT 584 744 Left 2 ;Note:\n  If the simulation model is not found please update with the "Sync Release" command from the "Tools" menu.\n  It remains the customer's responsibility to verify proper and reliable operation in the actual application.\n  Component substitution and printed circuit board layout may significantly affect circuit performance or reliability.\n  Contact your local sales representative for assistance. This circuit is distributed to customers only for use with LTC parts.\n  Copyright © 2012 Linear Technology Inc. All rights reserved.
TEXT 1136 -312 Bottom 2 ;LT3640 - Dual Monolithic Buck Regulator with Power-On Reset and Watchdog Timer\nDual High Voltage Buck with POR and WDT\nInput: 5V to 35V (Transient to 55V)       Output 1: 3.3V @ 0.8A         Output 2: 1.2V @ 1A
