Version 4
SHEET 1 2432 820
WIRE -320 -912 -432 -912
WIRE -128 -912 -320 -912
WIRE 112 -912 -128 -912
WIRE 304 -912 112 -912
WIRE 544 -912 304 -912
WIRE -432 -896 -432 -912
WIRE -320 -896 -320 -912
WIRE 112 -880 112 -912
WIRE 208 -880 208 -896
WIRE 304 -880 304 -912
WIRE -128 -816 -128 -912
WIRE -112 -816 -128 -816
WIRE 0 -816 -32 -816
WIRE 432 -816 416 -816
WIRE 544 -816 544 -912
WIRE 544 -816 512 -816
WIRE -432 -800 -432 -816
WIRE -320 -800 -320 -832
WIRE -384 -720 -448 -720
WIRE -256 -720 -320 -720
WIRE 0 -720 -256 -720
WIRE 592 -720 416 -720
WIRE 784 -720 592 -720
WIRE -256 -704 -256 -720
WIRE 592 -704 592 -720
WIRE -256 -624 -256 -640
WIRE -128 -624 -256 -624
WIRE 0 -624 -128 -624
WIRE 544 -624 416 -624
WIRE 592 -624 592 -640
WIRE 592 -624 544 -624
WIRE -256 -608 -256 -624
WIRE 592 -608 592 -624
WIRE 784 -576 784 -720
WIRE -256 -528 -256 -544
WIRE -128 -528 -128 -624
WIRE -96 -528 -128 -528
WIRE 0 -528 -16 -528
WIRE 432 -528 416 -528
WIRE 544 -528 544 -624
WIRE 544 -528 512 -528
WIRE 592 -528 592 -544
WIRE -448 -432 -448 -720
WIRE -448 -432 -592 -432
WIRE -288 -432 -448 -432
WIRE -224 -432 -288 -432
WIRE -112 -432 -224 -432
WIRE 0 -432 -112 -432
WIRE 512 -432 416 -432
WIRE 592 -432 512 -432
WIRE 720 -432 592 -432
WIRE 784 -432 784 -512
WIRE 784 -432 720 -432
WIRE 944 -432 784 -432
WIRE -592 -416 -592 -432
WIRE -224 -416 -224 -432
WIRE -112 -416 -112 -432
WIRE 512 -416 512 -432
WIRE 592 -416 592 -432
WIRE 944 -416 944 -432
WIRE -448 -400 -448 -432
WIRE 784 -400 784 -432
WIRE 0 -336 -48 -336
WIRE 448 -336 416 -336
WIRE -592 -320 -592 -336
WIRE -448 -320 -448 -336
WIRE -224 -320 -224 -336
WIRE -112 -320 -112 -352
WIRE -112 -320 -224 -320
WIRE -48 -320 -48 -336
WIRE -48 -320 -112 -320
WIRE 448 -320 448 -336
WIRE 512 -320 512 -352
WIRE 512 -320 448 -320
WIRE 592 -320 592 -336
WIRE 592 -320 512 -320
WIRE 784 -320 784 -336
WIRE 944 -320 944 -336
WIRE -224 -304 -224 -320
WIRE 592 -304 592 -320
WIRE -48 -240 -48 -320
WIRE 0 -240 -48 -240
WIRE 448 -240 448 -320
WIRE 448 -240 416 -240
WIRE -224 -208 -224 -224
WIRE 592 -208 592 -224
WIRE -288 -144 -288 -432
WIRE -160 -144 -288 -144
WIRE 0 -144 -80 -144
WIRE 496 -144 416 -144
WIRE 720 -144 720 -432
WIRE 720 -144 576 -144
WIRE 0 -48 -48 -48
WIRE 464 -48 416 -48
WIRE -288 48 -336 48
WIRE -160 48 -208 48
WIRE 0 48 -160 48
WIRE 592 48 416 48
WIRE 656 48 592 48
WIRE 784 48 736 48
WIRE 592 64 592 48
WIRE 784 64 784 48
WIRE -336 80 -336 48
WIRE -160 80 -160 48
WIRE 0 144 -80 144
WIRE 496 144 416 144
WIRE 592 144 592 128
WIRE 784 144 784 128
WIRE -336 160 -336 144
WIRE -160 160 -160 144
WIRE -80 160 -80 144
WIRE 496 160 496 144
WIRE 112 224 112 208
WIRE 208 224 208 208
WIRE 304 224 304 208
WIRE -80 256 -80 240
WIRE 496 256 496 240
WIRE 112 320 112 304
WIRE 304 320 304 304
FLAG -432 -800 0
FLAG -320 -800 0
FLAG 208 224 0
FLAG -224 -208 0
FLAG -256 -528 0
FLAG -448 -320 0
FLAG -592 -320 0
FLAG -592 -432 OUT2
FLAG -336 160 0
FLAG -432 -912 IN
FLAG -112 -48 0
FLAG -160 160 0
FLAG 592 -208 0
FLAG 592 -528 0
FLAG 784 -320 0
FLAG 944 -320 0
FLAG 944 -432 OUT1
FLAG 784 144 0
FLAG 528 -48 0
FLAG 592 144 0
FLAG -80 256 0
FLAG 112 320 0
FLAG 304 320 0
FLAG 496 256 0
SYMBOL VOLTAGE -432 -912 R0
WINDOW 123 0 0 Left 2
WINDOW 39 0 0 Left 2
SYMATTR InstName V1
SYMATTR Value 12
SYMBOL cap -336 -896 R0
SYMATTR InstName C1
SYMATTR Value 10µ
SYMBOL cap -272 -704 R0
WINDOW 0 40 19 Left 2
WINDOW 3 35 50 Left 2
SYMATTR InstName C2
SYMATTR Value .47µ
SYMBOL ind -112 -512 R270
WINDOW 0 32 56 VTop 2
WINDOW 3 5 56 VBottom 2
SYMATTR InstName L1
SYMATTR Value 4.7µ
SYMBOL RES -240 -432 R0
SYMATTR InstName R1
SYMATTR Value 24.9K
SYMBOL res -240 -320 R0
SYMATTR InstName R2
SYMATTR Value 8.06K
SYMBOL schottky -272 -544 M180
WINDOW 0 42 54 Left 2
WINDOW 3 24 0 Left 2
SYMATTR InstName D1
SYMATTR Value MBRS340
SYMBOL schottky -384 -704 R270
WINDOW 0 32 32 VTop 2
WINDOW 3 0 32 VBottom 2
SYMATTR InstName D2
SYMATTR Value PMEG4005AEA
SYMATTR Description Diode
SYMATTR Type diode
SYMBOL cap -464 -400 R0
SYMATTR InstName C3
SYMATTR Value 100µ
SYMBOL res -176 -128 R270
WINDOW 0 32 56 VTop 2
WINDOW 3 0 56 VBottom 2
SYMATTR InstName R3
SYMATTR Value 100K
SYMBOL res -192 32 R90
WINDOW 3 32 56 VTop 2
WINDOW 0 0 56 VBottom 2
SYMATTR Value 30.0K
SYMATTR InstName R4
SYMBOL cap -352 80 R0
SYMATTR Value 680p
SYMATTR InstName C4
SYMBOL cap -128 -416 R0
SYMATTR InstName C5
SYMATTR Value 22p
SYMBOL res -608 -432 R0
SYMATTR InstName Rload1
SYMATTR Value 1.1
SYMBOL res 96 208 R0
SYMATTR InstName R5
SYMATTR Value 10.2K
SYMBOL res 288 208 R0
SYMATTR InstName R6
SYMATTR Value 20.0K
SYMBOL res -96 144 R0
SYMATTR InstName R7
SYMATTR Value 100K
SYMBOL res 480 144 R0
SYMATTR InstName R8
SYMATTR Value 100K
SYMBOL cap -48 -64 R90
WINDOW 0 0 32 VBottom 2
WINDOW 3 32 32 VTop 2
SYMATTR InstName C6
SYMATTR Value 1n
SYMBOL cap -176 80 R0
SYMATTR InstName C7
SYMATTR Value 33p
SYMBOL cap 576 -704 R0
WINDOW 0 40 19 Left 2
WINDOW 3 35 50 Left 2
SYMATTR InstName C8
SYMATTR Value .47µ
SYMBOL ind 528 -512 M270
WINDOW 0 32 56 VTop 2
WINDOW 3 5 56 VBottom 2
SYMATTR InstName L2
SYMATTR Value 6.8µ
SYMBOL RES 576 -432 R0
SYMATTR InstName R9
SYMATTR Value 42.2K
SYMBOL res 576 -320 R0
SYMATTR InstName R10
SYMATTR Value 8.06K
SYMBOL schottky 576 -544 M180
WINDOW 0 42 54 Left 2
WINDOW 3 24 0 Left 2
SYMATTR InstName D3
SYMATTR Value MBRS340
SYMBOL schottky 768 -512 M180
WINDOW 0 24 64 Left 2
WINDOW 3 24 0 Left 2
SYMATTR InstName D4
SYMATTR Value PMEG4005AEA
SYMATTR Description Diode
SYMATTR Type diode
SYMBOL cap 768 -400 R0
SYMATTR InstName C9
SYMATTR Value 100µ
SYMBOL res 592 -128 M270
WINDOW 0 32 56 VTop 2
WINDOW 3 0 56 VBottom 2
SYMATTR InstName R11
SYMATTR Value 100K
SYMBOL res 640 32 M90
WINDOW 3 32 56 VTop 2
WINDOW 0 0 56 VBottom 2
SYMATTR Value 30.0K
SYMATTR InstName R12
SYMBOL cap 768 64 R0
SYMATTR Value 680p
SYMATTR InstName C10
SYMBOL cap 496 -416 R0
SYMATTR InstName C11
SYMATTR Value 22p
SYMBOL res 928 -432 R0
SYMATTR InstName Rload2
SYMATTR Value 1.67
SYMBOL cap 464 -64 M90
WINDOW 0 0 32 VBottom 2
WINDOW 3 32 32 VTop 2
SYMATTR InstName C12
SYMATTR Value 1n
SYMBOL cap 576 64 R0
SYMATTR InstName C13
SYMATTR Value 33p
SYMBOL res -16 -832 R90
WINDOW 0 0 56 VBottom 2
WINDOW 3 32 56 VTop 2
SYMATTR InstName R13
SYMATTR Value 1K
SYMBOL res 416 -832 M90
WINDOW 0 0 56 VBottom 2
WINDOW 3 32 56 VTop 2
SYMATTR InstName R14
SYMATTR Value 1K
SYMBOL PowerProducts\\LT3692A 208 -336 R0
SYMATTR InstName U1
TEXT -352 336 Left 2 ;Note:\n  If the simulation model is not found please update with the "Sync Release" command from the "Tools" menu.\n  It remains the customer's responsibility to verify proper and reliable operation in the actual application.\n  Component substitution and printed circuit board layout may significantly affect circuit performance or reliability.\n  Contact your local sales representative for assistance. This circuit is distributed to customers only for use with LTC parts.\n  Copyright © 2012 Linear Technology Inc. All rights reserved.
TEXT 752 296 Left 2 !.tran 500u startup
TEXT 224 -928 Bottom 2 ;LT3692A - Monolithic Dual Tracking 3.5A Step-down Switching Regulator\nFMEA Fault Tolerant 3.3V/3A & 5V/3A Dual Converter\nInput: 7V to 36V       Outputs: 5V @ 3A & 3.3V @ 3A
