Version 4
SHEET 1 1448 808
WIRE -416 -160 -496 -160
WIRE -272 -160 -320 -160
WIRE -144 -160 -272 -160
WIRE -80 -160 -144 -160
WIRE 32 -160 -80 -160
WIRE 160 -160 32 -160
WIRE 256 -160 160 -160
WIRE 384 -160 256 -160
WIRE -496 -144 -496 -160
WIRE -272 -144 -272 -160
WIRE 160 -144 160 -160
WIRE 256 -144 256 -160
WIRE -144 -128 -144 -160
WIRE 32 -80 32 -160
WIRE 48 -80 32 -80
WIRE 384 -80 384 -160
WIRE 384 -80 368 -80
WIRE -496 -48 -496 -64
WIRE -336 -48 -336 -112
WIRE -272 -48 -272 -64
WIRE -272 -48 -336 -48
WIRE -144 -48 -144 -64
WIRE -144 -48 -272 -48
WIRE -272 16 -272 -48
WIRE -240 16 -272 16
WIRE 48 16 -160 16
WIRE 416 16 368 16
WIRE 544 16 416 16
WIRE 416 32 416 16
WIRE 544 64 544 16
WIRE -80 112 -80 -160
WIRE -48 112 -80 112
WIRE 48 112 32 112
WIRE 416 112 416 96
WIRE 416 112 368 112
WIRE 416 128 416 112
WIRE 48 208 32 208
WIRE 544 208 544 144
WIRE 544 208 368 208
WIRE 48 304 32 304
WIRE 416 304 416 192
WIRE 416 304 368 304
WIRE 544 304 544 288
WIRE 544 304 416 304
WIRE 672 304 544 304
WIRE 544 320 544 304
WIRE 672 320 672 304
WIRE -48 400 -64 400
WIRE 48 400 32 400
WIRE 384 400 368 400
WIRE 544 400 544 384
WIRE 672 416 672 384
WIRE 48 496 32 496
WIRE 384 496 368 496
WIRE 208 576 208 560
FLAG 208 576 0
FLAG 32 496 0
FLAG -64 400 0
FLAG -496 -48 0
FLAG -496 -160 IN
FLAG 672 304 BAT
FLAG 544 400 0
FLAG 672 416 0
SYMBOL res 48 384 R90
WINDOW 0 0 56 VBottom 2
WINDOW 3 32 56 VTop 2
SYMATTR InstName R1
SYMATTR Value 301K
SYMBOL voltage -496 -160 R0
WINDOW 123 0 0 Left 2
WINDOW 39 0 0 Left 2
SYMATTR InstName V1
SYMATTR Value 16
SYMBOL cap 400 32 R0
SYMATTR InstName C1
SYMATTR Value 1µ
SYMBOL schottky 400 192 M180
WINDOW 0 24 64 Left 2
WINDOW 3 24 0 Left 2
SYMATTR InstName D1
SYMATTR Value 1N5819
SYMATTR Description Diode
SYMATTR Type diode
SYMBOL ind 528 48 R0
SYMATTR InstName L1
SYMATTR Value 6.5µ
SYMATTR SpiceLine Rser=10m Rpar=2K
SYMBOL res 528 192 R0
SYMATTR InstName R2
SYMATTR Value 24m
SYMBOL polcap 528 320 R0
WINDOW 3 24 56 Left 2
SYMATTR Value 100µ
SYMATTR InstName C2
SYMATTR Description Capacitor
SYMATTR Type cap
SYMBOL cap 656 320 R0
SYMATTR InstName Li-IonBattery
SYMATTR Value 1m
SYMATTR SpiceLine Rser=.01
SYMBOL PowerProducts\\LT3651-4.2 208 208 R0
SYMATTR InstName U1
SYMBOL zener -160 -64 M180
WINDOW 0 24 64 Left 2
WINDOW 3 24 0 Left 2
SYMATTR InstName D2
SYMATTR Value BZX84C10L
SYMATTR Description Diode
SYMATTR Type diode
SYMBOL pmos -416 -112 R270
WINDOW 0 100 22 VRight 2
WINDOW 3 71 -9 VRight 2
SYMATTR InstName Q1
SYMATTR Value Si4401DY
SYMBOL res -288 -160 R0
SYMATTR InstName R3
SYMATTR Value 100K
SYMBOL res -256 32 R270
WINDOW 0 32 56 VTop 2
WINDOW 3 0 56 VBottom 2
SYMATTR InstName R4
SYMATTR Value 100K
SYMBOL res -64 128 R270
WINDOW 0 32 56 VTop 2
WINDOW 3 0 56 VBottom 2
SYMATTR InstName R5
SYMATTR Value 50K
TEXT 464 544 Left 2 !.tran 1m startup
TEXT 232 -176 Bottom 2 ;LT3651-4.2 - Monolithic 4A High Voltage 2-Cell Li-Ion Battery Charger\nSingle Cell 4A Charger\nInput: 6.5V to 32V    Outputs: 4.2V @ 4A  Fsw = 182kHz
TEXT -328 592 Left 2 ;Notes:\n  If the simulation model is not found please update with the "Sync Release" command from the "Tools" menu.\n  It remains the customer's responsibility to verify proper and reliable operation in the actual application.\n  Component substitution and printed circuit board layout may significantly affect circuit performance or reliability.\n  Contact your local sales representative for assistance. This circuit is distributed to customers only for use with LTC parts.\n  Copyright © 2013 Linear Technology Inc. All rights reserved.
TEXT 592 480 Left 2 !.ic V(bat)=2.8

