Version 4
SHEET 1 4068 2212
WIRE 2128 640 2032 640
WIRE 2224 640 2128 640
WIRE 2432 640 2224 640
WIRE 2624 640 2432 640
WIRE 2784 640 2624 640
WIRE 2032 656 2032 640
WIRE 2128 656 2128 640
WIRE 2224 656 2224 640
WIRE 2784 656 2784 640
WIRE 2432 688 2432 640
WIRE 2528 688 2528 672
WIRE 2624 688 2624 640
WIRE 2032 752 2032 736
WIRE 2128 752 2128 720
WIRE 2224 752 2224 736
WIRE 2320 752 2224 752
WIRE 2784 752 2784 736
WIRE 2784 752 2736 752
WIRE 2080 848 1952 848
WIRE 2320 848 2080 848
WIRE 2896 848 2736 848
WIRE 3056 848 2896 848
WIRE 2080 864 2080 848
WIRE 2896 864 2896 848
WIRE 2080 944 2080 928
WIRE 2272 944 2080 944
WIRE 2320 944 2272 944
WIRE 2784 944 2736 944
WIRE 2896 944 2896 928
WIRE 2896 944 2784 944
WIRE 2080 960 2080 944
WIRE 2272 960 2272 944
WIRE 2784 960 2784 944
WIRE 2896 960 2896 944
WIRE 1952 1024 1952 848
WIRE 3056 1024 3056 848
WIRE 2080 1040 2080 1024
WIRE 2320 1040 2272 1040
WIRE 2784 1040 2736 1040
WIRE 2896 1040 2896 1024
WIRE 1952 1136 1952 1088
WIRE 1952 1136 1824 1136
WIRE 2080 1136 1952 1136
WIRE 2144 1136 2080 1136
WIRE 2256 1136 2144 1136
WIRE 2320 1136 2256 1136
WIRE 2784 1136 2736 1136
WIRE 2880 1136 2784 1136
WIRE 2992 1136 2880 1136
WIRE 3056 1136 3056 1088
WIRE 3056 1136 2992 1136
WIRE 3200 1136 3056 1136
WIRE 1824 1152 1824 1136
WIRE 2256 1152 2256 1136
WIRE 2784 1152 2784 1136
WIRE 2880 1152 2880 1136
WIRE 3200 1152 3200 1136
WIRE 1952 1168 1952 1136
WIRE 3056 1168 3056 1136
WIRE 2144 1232 2144 1216
WIRE 2256 1232 2256 1216
WIRE 2256 1232 2144 1232
WIRE 2320 1232 2256 1232
WIRE 2784 1232 2784 1216
WIRE 2784 1232 2736 1232
WIRE 2880 1232 2784 1232
WIRE 1824 1248 1824 1232
WIRE 1952 1248 1952 1232
WIRE 2144 1248 2144 1232
WIRE 3056 1248 3056 1232
WIRE 3200 1248 3200 1232
WIRE 2880 1264 2880 1232
WIRE 2256 1328 2256 1232
WIRE 2320 1328 2256 1328
WIRE 2784 1328 2784 1232
WIRE 2784 1328 2736 1328
WIRE 2144 1344 2144 1328
WIRE 2880 1360 2880 1344
WIRE 2080 1424 2080 1136
WIRE 2192 1424 2080 1424
WIRE 2320 1424 2272 1424
WIRE 2800 1424 2736 1424
WIRE 2992 1424 2992 1136
WIRE 2992 1424 2880 1424
WIRE 2000 1520 1952 1520
WIRE 2128 1520 2080 1520
WIRE 2320 1520 2128 1520
WIRE 2912 1520 2736 1520
WIRE 2960 1520 2912 1520
WIRE 3088 1520 3040 1520
WIRE 1952 1536 1952 1520
WIRE 2128 1536 2128 1520
WIRE 2912 1536 2912 1520
WIRE 3088 1536 3088 1520
WIRE 1952 1616 1952 1600
WIRE 2128 1616 2128 1600
WIRE 2224 1616 2192 1616
WIRE 2320 1616 2288 1616
WIRE 2768 1616 2736 1616
WIRE 2848 1616 2832 1616
WIRE 2912 1616 2912 1600
WIRE 3088 1616 3088 1600
WIRE 2224 1712 2192 1712
WIRE 2320 1712 2304 1712
WIRE 2752 1712 2736 1712
WIRE 2848 1712 2832 1712
WIRE 2432 1792 2432 1776
WIRE 2528 1792 2528 1776
WIRE 2624 1792 2624 1776
WIRE 2432 1888 2432 1872
WIRE 2624 1888 2624 1872
FLAG 2032 752 0
FLAG 2128 752 0
FLAG 2528 1792 0
FLAG 2144 1344 0
FLAG 2080 1040 0
FLAG 1952 1248 0
FLAG 1824 1248 0
FLAG 1824 1136 OUT2
FLAG 1952 1616 0
FLAG 2032 640 IN
FLAG 2192 1616 0
FLAG 2128 1616 0
FLAG 2880 1360 0
FLAG 2896 1040 0
FLAG 3056 1248 0
FLAG 3200 1248 0
FLAG 3200 1136 OUT1
FLAG 3088 1616 0
FLAG 2848 1616 0
FLAG 2912 1616 0
FLAG 2192 1712 0
FLAG 2432 1888 0
FLAG 2624 1888 0
FLAG 2848 1712 0
SYMBOL VOLTAGE 2032 640 R0
WINDOW 123 0 0 Left 0
WINDOW 39 0 0 Left 0
SYMATTR InstName V1
SYMATTR Value 12
SYMBOL cap 2112 656 R0
SYMATTR InstName C1
SYMATTR Value 10µ
SYMBOL cap 2064 864 R0
WINDOW 0 40 19 Left 0
WINDOW 3 35 50 Left 0
SYMATTR InstName C2
SYMATTR Value .47µ
SYMBOL ind 2288 944 M0
SYMATTR InstName L1
SYMATTR Value 4.7µ
SYMBOL RES 2128 1120 R0
SYMATTR InstName R1
SYMATTR Value 24.9K
SYMBOL res 2128 1232 R0
SYMATTR InstName R2
SYMATTR Value 8.06K
SYMBOL schottky 2064 1024 M180
WINDOW 0 42 54 Left 0
WINDOW 3 24 0 Left 0
SYMATTR InstName D1
SYMATTR Value MBRS340
SYMBOL schottky 1936 1088 M180
WINDOW 0 24 72 Left 0
WINDOW 3 24 0 Left 0
SYMATTR InstName D2
SYMATTR Value PMEG4005AEA
SYMATTR Description Diode
SYMATTR Type diode
SYMBOL cap 1936 1168 R0
SYMATTR InstName C3
SYMATTR Value 100µ
SYMBOL res 2176 1440 R270
WINDOW 0 32 56 VTop 0
WINDOW 3 0 56 VBottom 0
SYMATTR InstName R3
SYMATTR Value 100K
SYMBOL res 2096 1504 R90
WINDOW 3 32 56 VTop 0
WINDOW 0 0 56 VBottom 0
SYMATTR Value 30.0K
SYMATTR InstName R4
SYMBOL cap 1936 1536 R0
SYMATTR Value 680p
SYMATTR InstName C4
SYMBOL cap 2240 1152 R0
SYMATTR InstName C5
SYMATTR Value 22p
SYMBOL PowerProducts\\LT3692 2528 1232 R0
SYMATTR InstName U1
SYMBOL res 2416 1776 R0
SYMATTR InstName R5
SYMATTR Value 10.2K
SYMBOL res 2608 1776 R0
SYMATTR InstName R6
SYMATTR Value 20.0K
SYMBOL res 2320 1696 R90
WINDOW 0 0 56 VBottom 0
WINDOW 3 32 56 VTop 0
SYMATTR InstName R7
SYMATTR Value 100K
SYMBOL res 2736 1728 R270
WINDOW 0 32 56 VTop 0
WINDOW 3 0 56 VBottom 0
SYMATTR InstName R8
SYMATTR Value 100K
SYMBOL cap 2288 1600 R90
WINDOW 0 0 32 VBottom 0
WINDOW 3 32 32 VTop 0
SYMATTR InstName C6
SYMATTR Value 1n
SYMBOL cap 2112 1536 R0
SYMATTR InstName C7
SYMATTR Value 33p
SYMBOL cap 2880 864 R0
WINDOW 0 40 19 Left 0
WINDOW 3 35 50 Left 0
SYMATTR InstName C8
SYMATTR Value .47µ
SYMBOL ind 2768 944 R0
SYMATTR InstName L2
SYMATTR Value 6.8µ
SYMBOL RES 2864 1136 R0
SYMATTR InstName R9
SYMATTR Value 42.2K
SYMBOL res 2864 1248 R0
SYMATTR InstName R10
SYMATTR Value 8.06K
SYMBOL schottky 2880 1024 M180
WINDOW 0 42 54 Left 0
WINDOW 3 24 0 Left 0
SYMATTR InstName D3
SYMATTR Value MBRS340
SYMBOL schottky 3040 1088 M180
WINDOW 0 24 72 Left 0
WINDOW 3 24 0 Left 0
SYMATTR InstName D4
SYMATTR Value PMEG4005AEA
SYMATTR Description Diode
SYMATTR Type diode
SYMBOL cap 3040 1168 R0
SYMATTR InstName C9
SYMATTR Value 100µ
SYMBOL res 2896 1440 M270
WINDOW 0 32 56 VTop 0
WINDOW 3 0 56 VBottom 0
SYMATTR InstName R11
SYMATTR Value 100K
SYMBOL res 2944 1504 M90
WINDOW 3 32 56 VTop 0
WINDOW 0 0 56 VBottom 0
SYMATTR Value 30K
SYMATTR InstName R12
SYMBOL cap 3072 1536 R0
SYMATTR Value 680p
SYMATTR InstName C10
SYMBOL cap 2768 1152 R0
SYMATTR InstName C11
SYMATTR Value 22p
SYMBOL cap 2768 1600 M90
WINDOW 0 0 32 VBottom 0
WINDOW 3 32 32 VTop 0
SYMATTR InstName C12
SYMATTR Value 1n
SYMBOL cap 2896 1536 R0
SYMATTR InstName C13
SYMATTR Value 33p
SYMBOL res 2208 640 R0
SYMATTR InstName R13
SYMATTR Value 1K
SYMBOL res 2768 640 R0
SYMATTR InstName R14
SYMATTR Value 1K
SYMBOL res 1808 1136 R0
SYMATTR InstName Rload2
SYMATTR Value 1.1
SYMBOL res 3184 1136 R0
SYMATTR InstName Rload1
SYMATTR Value 1.67
TEXT 2552 608 Bottom 0 ;LT3692 - Monolithic Dual Tracking 3.5A Step-Down Switching Regulator\nInput: 12V       Outputs: 5V @ 3A and 3.3V @ 3A
TEXT 1936 1896 Left 0 ;Note:\n  If the simulation model is not found please update with the "Sync Release" command from the "Tools" menu.\n  It remains the customer's responsibility to verify proper and reliable operation in the actual application.\n  Component substitution and printed circuit board layout may significantly affect circuit performance or reliability.\n  Contact your local sales representative for assistance. This circuit is distributed to customers only for use with LTC parts.\n  Copyright © 2011 Linear Technology Inc. All rights reserved.
TEXT 3056 1760 Left 0 !.tran 500u startup
