Version 4
SHEET 1 1176 924
WIRE 160 32 96 32
WIRE 288 32 224 32
WIRE 96 96 96 32
WIRE -96 144 -208 144
WIRE -64 144 -96 144
WIRE 288 144 288 32
WIRE 288 144 256 144
WIRE 336 144 288 144
WIRE 448 144 416 144
WIRE 544 144 448 144
WIRE 608 144 544 144
WIRE 704 144 608 144
WIRE -208 160 -208 144
WIRE 448 160 448 144
WIRE 608 160 608 144
WIRE 704 160 704 144
WIRE 288 176 288 144
WIRE -208 256 -208 240
WIRE -96 256 -96 144
WIRE -64 256 -96 256
WIRE 288 256 288 240
WIRE 288 256 256 256
WIRE 608 256 608 224
WIRE 704 256 704 240
WIRE 448 288 448 240
WIRE 448 288 384 288
WIRE 448 304 448 288
WIRE -64 368 -208 368
WIRE 384 368 384 288
WIRE 384 368 256 368
WIRE -208 384 -208 368
WIRE 448 400 448 384
WIRE -320 480 -448 480
WIRE -208 480 -208 464
WIRE -208 480 -320 480
WIRE -64 480 -208 480
WIRE 544 480 544 144
WIRE 544 480 256 480
WIRE -448 496 -448 480
WIRE -320 496 -320 480
WIRE -208 496 -208 480
WIRE -448 592 -448 576
WIRE -320 592 -320 560
WIRE -208 592 -208 576
WIRE -64 592 -208 592
WIRE 288 592 256 592
WIRE -208 608 -208 592
WIRE 96 656 96 640
WIRE -208 704 -208 688
WIRE -96 736 -96 256
WIRE 288 736 288 592
WIRE 288 736 -96 736
FLAG -208 256 0
FLAG 448 400 0
FLAG 704 256 0
FLAG 608 256 0
FLAG 704 144 OUT1
FLAG -208 144 IN
FLAG -208 704 0
FLAG 96 656 0
FLAG -320 592 0
FLAG -448 592 0
FLAG -448 480 OUT2
SYMBOL voltage -208 144 R0
SYMATTR InstName V1
SYMATTR Value 5
SYMBOL ind 320 160 R270
WINDOW 0 32 56 VTop 2
WINDOW 3 5 56 VBottom 2
SYMATTR InstName L1
SYMATTR Value 10µ
SYMBOL res 432 144 R0
SYMATTR InstName R1
SYMATTR Value 31.6K
SYMBOL res 432 288 R0
SYMATTR InstName R2
SYMATTR Value 10K
SYMBOL cap 592 160 R0
SYMATTR InstName C1
SYMATTR Value 10µ
SYMBOL schottky 272 240 M180
WINDOW 0 22 62 Left 2
WINDOW 3 24 0 Left 2
SYMATTR InstName D1
SYMATTR Value MBR0520L
SYMATTR Description Diode
SYMATTR Type diode
SYMBOL cap 160 48 R270
WINDOW 3 0 32 VBottom 2
WINDOW 0 32 32 VTop 2
SYMATTR Value 0.1µ
SYMATTR InstName C2
SYMBOL PowerProducts\\LT3645 96 368 R0
SYMATTR InstName U1
SYMBOL res -224 480 R0
SYMATTR InstName R3
SYMATTR Value 21.5K
SYMBOL res -224 592 R0
SYMATTR InstName R4
SYMATTR Value 10K
SYMBOL cap -336 496 R0
SYMATTR InstName C3
SYMATTR Value 2.2µ
SYMBOL res 688 144 R0
SYMATTR InstName Rload1
SYMATTR Value 11
SYMBOL res -464 480 R0
SYMATTR InstName Rload2
SYMATTR Value 12.5
SYMBOL res -224 368 R0
SYMATTR InstName R5
SYMATTR Value 100K
TEXT 432 616 Left 2 !.tran 600us startup
TEXT -480 736 Left 2 ;Note:\n  If the simulation model is not found please update with the "Sync Release" command from the "Tools" menu.\n  It remains the customer's responsibility to verify proper and reliable operation in the actual application.\n  Component substitution and printed circuit board layout may significantly affect circuit performance or reliability.\n  Contact your local sales representative for assistance. This circuit is distributed to customers only for use with LTC parts.\n  Copyright © 2012 Linear Technology Inc. All rights reserved.
TEXT 152 -16 Bottom 2 ;LT3645 - 36V 500mA Step-Down Regulator and 200mA LDO\nStep-Down Regulator with LDO\nInput: 5V to 36V     Output: 3.3V @ 300mA & 2.5V @ 200mA
