Version 4
SHEET 1 2372 860
WIRE -16 -144 -112 -144
WIRE 80 -144 -16 -144
WIRE 96 -144 80 -144
WIRE 640 -144 416 -144
WIRE -112 -128 -112 -144
WIRE -16 -112 -16 -144
WIRE 80 -48 80 -144
WIRE 96 -48 80 -48
WIRE 464 -48 416 -48
WIRE -112 -32 -112 -48
WIRE -16 -32 -16 -48
WIRE 464 -32 464 -48
WIRE 96 48 80 48
WIRE 464 48 464 32
WIRE 464 48 416 48
WIRE 528 48 464 48
WIRE 640 48 640 -144
WIRE 640 48 608 48
WIRE 736 48 640 48
WIRE 800 48 736 48
WIRE 864 48 800 48
WIRE 960 48 864 48
WIRE 464 64 464 48
WIRE 864 64 864 48
WIRE 960 64 960 48
WIRE 736 96 736 48
WIRE 640 112 640 48
WIRE 96 144 80 144
WIRE 464 144 464 128
WIRE 464 144 416 144
WIRE 864 160 864 128
WIRE 960 160 960 144
WIRE -128 240 -144 240
WIRE 96 240 -48 240
WIRE 640 240 640 192
WIRE 640 240 416 240
WIRE 736 240 736 160
WIRE 736 240 640 240
WIRE 640 256 640 240
WIRE 0 352 -16 352
WIRE 96 352 80 352
WIRE 432 352 416 352
WIRE 528 352 496 352
WIRE 640 352 640 336
WIRE -16 464 -16 352
WIRE 0 464 -16 464
WIRE 96 464 80 464
WIRE 432 464 416 464
WIRE 528 464 496 464
WIRE 96 576 80 576
WIRE 432 576 416 576
WIRE 528 576 512 576
WIRE 256 624 256 608
WIRE -16 656 -16 464
WIRE 800 656 800 48
WIRE 800 656 -16 656
FLAG 256 624 0
FLAG 528 352 0
FLAG 528 464 0
FLAG 528 576 0
FLAG 640 352 0
FLAG 864 160 0
FLAG 80 576 0
FLAG -112 -32 0
FLAG 960 160 0
FLAG -144 240 0
FLAG 80 144 0
FLAG 960 48 OUT
FLAG -112 -144 IN
FLAG 80 48 0
FLAG -16 -32 0
SYMBOL PowerProducts\\LT3689 256 192 R0
SYMATTR InstName U1
SYMBOL res 624 96 R0
SYMATTR InstName R1
SYMATTR Value 432K
SYMBOL cap 496 448 R90
WINDOW 0 0 32 VBottom 0
WINDOW 3 32 32 VTop 0
SYMATTR InstName C1
SYMATTR Value .01n
SYMBOL cap 496 336 R90
WINDOW 0 0 32 VBottom 0
WINDOW 3 32 32 VTop 0
SYMATTR InstName C2
SYMATTR Value .01n
SYMBOL res 624 240 R0
SYMATTR InstName R2
SYMATTR Value 137K
SYMBOL res 528 560 R90
WINDOW 0 0 56 VBottom 0
WINDOW 3 32 56 VTop 0
SYMATTR InstName R3
SYMATTR Value 16.9K
SYMBOL schottky 448 128 M180
WINDOW 0 30 65 Left 0
WINDOW 3 24 0 Left 0
SYMATTR InstName D1
SYMATTR Value 1N5819
SYMATTR Description Diode
SYMATTR Type diode
SYMBOL ind 512 64 R270
WINDOW 0 32 56 VTop 0
WINDOW 3 5 56 VBottom 0
SYMATTR InstName L1
SYMATTR Value 10µ
SYMATTR SpiceLine Rpar=2K
SYMBOL cap 720 96 R0
SYMATTR InstName C3
SYMATTR Value 10p
SYMBOL cap 848 64 R0
SYMATTR InstName C4
SYMATTR Value 22µ
SYMATTR SpiceLine V=6.3V
SYMBOL cap 448 -32 R0
WINDOW 3 27 56 Left 0
SYMATTR Value .22µ
SYMATTR InstName C5
SYMBOL voltage -112 -144 R0
SYMATTR InstName V1
SYMATTR Value 12
SYMBOL res 944 48 R0
SYMATTR InstName Rload
SYMATTR Value 4.7
SYMBOL voltage -32 240 R90
WINDOW 3 32 56 VTop 0
WINDOW 123 74 56 VTop 0
WINDOW 39 53 56 VTop 0
WINDOW 0 -32 56 VBottom 0
SYMATTR Value PULSE(0 2 0 1u 1u 260u 520u)
SYMATTR InstName V2
SYMBOL res 96 336 R90
WINDOW 0 0 56 VBottom 0
WINDOW 3 32 56 VTop 0
SYMATTR InstName R4
SYMATTR Value 100K
SYMBOL res 96 448 R90
WINDOW 0 0 56 VBottom 0
WINDOW 3 32 56 VTop 0
SYMATTR InstName R5
SYMATTR Value 100K
SYMBOL cap -32 -112 R0
SYMATTR InstName C6
SYMATTR Value 2.2µ
TEXT 856 544 Left 0 !.tran 1m startup
TEXT 400 -184 Bottom 0 ;LT3689 - Monolithic 700mA Step-Down Regulator with Power-On Reset and Watchdog Timer\nInput: 4.5V - 36V, transient to 60V      Output: 3.3V @ 700mA
TEXT -264 656 Left 0 ;Note:\n  If the simulation model is not found please update with the "Sync Release" command from the "Tools" menu.\n  It remains the customer's responsibility to verify proper and reliable operation in the actual application.\n  Component substitution and printed circuit board layout may significantly affect circuit performance or reliability.\n  Contact your local sales representative for assistance. This circuit is distributed to customers only for use with LTC parts.\n  Copyright © 2011 Linear Technology Inc. All rights reserved.
