Version 4
SHEET 1 1492 932
WIRE 400 -192 400 -208
WIRE -128 -64 -240 -64
WIRE 0 -64 -64 -64
WIRE 64 -64 0 -64
WIRE 80 -64 64 -64
WIRE 400 -64 400 -128
WIRE 400 -64 368 -64
WIRE 448 -64 400 -64
WIRE 576 -64 528 -64
WIRE 608 -64 576 -64
WIRE 720 -64 688 -64
WIRE 800 -64 720 -64
WIRE 896 -64 800 -64
WIRE 1008 -64 896 -64
WIRE -240 -48 -240 -64
WIRE 0 -48 0 -64
WIRE 400 -48 400 -64
WIRE 800 -48 800 -64
WIRE 896 -48 896 -64
WIRE 1008 -48 1008 -64
WIRE 64 32 64 -64
WIRE 80 32 64 32
WIRE 400 32 400 16
WIRE 400 32 368 32
WIRE 464 32 400 32
WIRE 720 32 720 -64
WIRE 720 32 528 32
WIRE 800 32 800 16
WIRE 896 32 896 16
WIRE 1008 32 1008 16
WIRE -240 48 -240 32
WIRE 0 48 0 16
WIRE 64 128 64 32
WIRE 80 128 64 128
WIRE 576 128 576 -64
WIRE 576 128 368 128
WIRE 720 224 720 32
WIRE 720 224 368 224
WIRE -16 416 -32 416
WIRE 80 416 48 416
WIRE 400 416 368 416
WIRE 496 416 464 416
WIRE 224 480 224 464
FLAG 224 480 0
FLAG 400 -208 0
FLAG 0 48 0
FLAG -32 416 0
FLAG 800 32 0
FLAG 896 32 0
FLAG 1008 32 0
FLAG -240 -64 IN
FLAG -240 48 0
FLAG 1008 -64 OUT
FLAG 496 416 0
SYMBOL res 592 -48 R270
WINDOW 0 32 56 VTop 2
WINDOW 3 0 56 VBottom 2
SYMATTR InstName R1
SYMATTR Value .05
SYMBOL cap 384 -48 R0
SYMATTR InstName C1
SYMATTR Value 1µ
SYMBOL diode 528 16 R90
WINDOW 0 0 32 VBottom 2
WINDOW 3 32 32 VTop 2
SYMATTR InstName D1
SYMATTR Value 1N914
SYMBOL schottky 384 -192 R0
SYMATTR Value MBRS340
SYMATTR InstName D2
SYMATTR Description Diode
SYMATTR Type diode
SYMBOL cap 784 -48 R0
SYMATTR InstName C2
SYMATTR Value 10µ
SYMATTR SpiceLine Rser=0.003
SYMBOL cap -16 -48 R0
SYMATTR InstName C4
SYMATTR Value 10µ
SYMBOL cap 48 400 R90
WINDOW 0 0 32 VBottom 2
WINDOW 3 32 32 VTop 2
SYMATTR InstName C5
SYMATTR Value 0.68µ
SYMBOL ind 432 -48 R270
WINDOW 0 32 56 VTop 2
WINDOW 3 5 56 VBottom 2
SYMATTR InstName L1
SYMATTR Value 6.8µ
SYMATTR SpiceLine Rser=0.11 Rpar=21068
SYMBOL cap 880 -48 R0
SYMATTR InstName C6
SYMATTR Value 100µ
SYMATTR SpiceLine Rser=.01
SYMBOL cap 992 -48 R0
WINDOW 39 24 84 Left 2
SYMATTR InstName C3
SYMATTR Value 1.5m
SYMBOL voltage -240 -64 R0
WINDOW 123 0 0 Left 2
WINDOW 39 0 0 Left 2
SYMATTR InstName V1
SYMATTR Value 12
SYMBOL cap 464 400 R90
WINDOW 0 0 32 VBottom 2
WINDOW 3 32 32 VTop 2
SYMATTR InstName C7
SYMATTR Value 0.01µ
SYMBOL schottky -128 -48 R270
WINDOW 3 0 32 VBottom 2
WINDOW 0 32 32 VTop 2
SYMATTR Value MBRS340
SYMATTR InstName D3
SYMATTR Description Diode
SYMATTR Type diode
SYMBOL PowerProducts\\LT3650-4.2 224 176 R0
WINDOW 0 5 -108 Center 2
SYMATTR InstName U1
TEXT 800 368 Left 2 !.tran 3m
TEXT 224 -232 Bottom 2 ;LT3650-4.2 - High Voltage 2 Amp Monolithic Li-Ion Battery Charger\nSingle-Cell Li-Ion 2A Charger\nInput: 7.5V to 32V     Output: Up to 4.2V @ 2A
TEXT -368 504 Left 2 ;Note:\n  If the simulation model is not found please update with the "Sync Release" command from the "Tools" menu.\n  It remains the customer's responsibility to verify proper and reliable operation in the actual application.\n  Component substitution and printed circuit board layout may significantly affect circuit performance or reliability\n  Contact your local sales representative for assistance. This circuit is distributed to customers only for use with LTC parts\n  Copyright © 2012 Linear Technology Inc. All rights reserved.
TEXT 856 160 Left 2 !.ic V(OUT)=2.7
