Version 4
SHEET 1 1828 1036
WIRE -96 -160 -448 -160
WIRE 160 -160 -96 -160
WIRE -448 -144 -448 -160
WIRE 800 -144 -352 -144
WIRE 160 -128 160 -160
WIRE -96 -96 -96 -160
WIRE -64 -96 -96 -96
WIRE 800 -96 800 -144
WIRE 800 -96 400 -96
WIRE -448 -48 -448 -64
WIRE -352 0 -352 -144
WIRE -240 0 -352 0
WIRE -64 0 -160 0
WIRE 448 0 400 0
WIRE 448 16 448 0
WIRE -64 96 -80 96
WIRE 448 96 448 80
WIRE 448 96 400 96
WIRE 512 96 448 96
WIRE 624 96 592 96
WIRE 704 96 624 96
WIRE 800 96 800 -96
WIRE 800 96 704 96
WIRE 912 96 800 96
WIRE 448 112 448 96
WIRE 912 112 912 96
WIRE 624 128 624 96
WIRE 800 128 800 96
WIRE 704 144 704 96
WIRE -208 192 -256 192
WIRE -64 192 -128 192
WIRE 448 192 448 176
WIRE 448 192 400 192
WIRE 912 208 912 192
WIRE 800 224 800 192
WIRE -352 288 -352 0
WIRE -240 288 -256 288
WIRE -160 288 -176 288
WIRE -64 288 -80 288
WIRE 704 288 704 224
WIRE 704 288 400 288
WIRE 704 304 704 288
WIRE -352 384 -352 368
WIRE -64 384 -352 384
WIRE 624 384 624 208
WIRE 624 384 400 384
WIRE 704 400 704 384
WIRE -352 432 -352 384
WIRE 624 432 624 384
WIRE -64 480 -288 480
WIRE 560 480 400 480
WIRE -352 576 -352 528
WIRE -352 576 -528 576
WIRE -288 576 -352 576
WIRE -160 576 -208 576
WIRE -64 576 -160 576
WIRE 432 576 400 576
WIRE 496 576 432 576
WIRE 624 576 624 528
WIRE 624 576 576 576
WIRE 736 576 624 576
WIRE -528 592 -528 576
WIRE -352 592 -352 576
WIRE -160 592 -160 576
WIRE 432 592 432 576
WIRE 624 592 624 576
WIRE 736 592 736 576
WIRE 0 672 0 656
WIRE 112 672 112 656
WIRE 224 672 224 656
WIRE 336 672 336 656
WIRE -528 688 -528 672
WIRE -352 688 -352 656
WIRE -160 688 -160 672
WIRE 432 688 432 672
WIRE 624 688 624 656
WIRE 736 688 736 672
WIRE 0 752 0 736
WIRE 112 752 112 736
WIRE 224 752 224 736
FLAG -256 288 0
FLAG -448 -48 0
FLAG 912 96 OUT1
FLAG 736 576 OUT3
FLAG 704 400 0
FLAG 624 688 0
FLAG 912 208 0
FLAG 736 688 0
FLAG 432 688 0
FLAG 112 752 0
FLAG -528 576 OUT2
FLAG -352 688 0
FLAG -528 688 0
FLAG -160 688 0
FLAG 336 672 0
FLAG 224 752 0
FLAG 0 752 0
FLAG 800 224 0
FLAG -256 192 0
FLAG -448 -160 IN
SYMBOL ind 496 112 R270
WINDOW 0 32 56 VTop 0
WINDOW 3 5 56 VBottom 0
SYMATTR InstName L1
SYMATTR Value 4.7µ
SYMATTR SpiceLine Rpar=2K
SYMBOL cap 432 80 M180
WINDOW 0 25 49 Left 0
WINDOW 3 25 14 Left 0
SYMATTR InstName C1
SYMATTR Value 0.22µ
SYMBOL res 688 128 R0
SYMATTR InstName R1
SYMATTR Value 34K
SYMBOL schottky 432 176 M180
WINDOW 0 30 64 Left 0
WINDOW 3 24 0 Left 0
SYMATTR InstName D1
SYMATTR Value MBRS340
SYMATTR Description Diode
SYMATTR Type diode
SYMBOL cap 784 128 R0
SYMATTR InstName C2
SYMATTR Value 47µ
SYMBOL cap 96 672 R0
SYMATTR InstName C3
SYMATTR Value 1n
SYMBOL voltage -448 -160 R0
WINDOW 123 0 0 Left 0
WINDOW 39 0 0 Left 0
SYMATTR InstName V1
SYMATTR Value 12
SYMBOL npn 560 432 R0
SYMATTR InstName Q1
SYMATTR Value 2N2219A
SYMBOL res 592 560 R90
WINDOW 0 0 56 VBottom 0
WINDOW 3 32 56 VTop 0
SYMATTR InstName R2
SYMATTR Value 15.4K
SYMBOL res 416 576 R0
SYMATTR InstName R3
SYMATTR Value 11K
SYMBOL cap 608 592 R0
SYMATTR InstName C4
SYMATTR Value 2.2µ
SYMBOL res -64 272 R90
WINDOW 0 0 56 VBottom 0
WINDOW 3 32 56 VTop 0
SYMATTR InstName R4
SYMATTR Value 41.2K
SYMBOL PowerProducts\\LT3694 160 288 R0
SYMATTR InstName U1
SYMBOL cap -16 672 R0
SYMATTR InstName C5
SYMATTR Value 1n
SYMBOL cap 208 672 R0
SYMATTR InstName C6
SYMATTR Value 1n
SYMBOL res -112 176 R90
WINDOW 0 0 56 VBottom 0
WINDOW 3 32 56 VTop 0
SYMATTR InstName R5
SYMATTR Value 51.1k
SYMBOL cap -176 272 R90
WINDOW 0 0 32 VBottom 0
WINDOW 3 32 32 VTop 0
SYMATTR InstName C7
SYMATTR Value 330p
SYMBOL res 688 288 R0
SYMATTR InstName R6
SYMATTR Value 10K
SYMBOL res 608 112 R0
SYMATTR InstName R7
SYMATTR Value 0.1
SYMBOL npn -288 432 M0
SYMATTR InstName Q2
SYMATTR Value 2N2219A
SYMBOL res -304 560 M90
WINDOW 0 0 56 VBottom 0
WINDOW 3 32 56 VTop 0
SYMATTR InstName R8
SYMATTR Value 24.9K
SYMBOL res -176 576 R0
SYMATTR InstName R9
SYMATTR Value 10.7K
SYMBOL cap -368 592 R0
SYMATTR InstName C8
SYMATTR Value 2.2µ
SYMBOL res -368 272 R0
SYMATTR InstName R10
SYMATTR Value 0.1
SYMBOL res -256 16 R270
WINDOW 0 32 56 VTop 0
WINDOW 3 0 56 VBottom 0
SYMATTR InstName R11
SYMATTR Value 100K
SYMBOL res -544 576 R0
SYMATTR InstName Rload2
SYMATTR Value 5.56
SYMBOL res 720 576 R0
SYMATTR InstName Rload3
SYMATTR Value 4
SYMBOL res 896 96 R0
SYMATTR InstName Rload1
SYMATTR Value 1.93
TEXT 856 736 Left 0 !.tran 500u startup
TEXT 232 -176 Bottom 0 ;LT3694 - 36V, 2.6A Monolithic Buck Regulator With Dual LDO and Sync In\nInput: 12V    Outputs: 3.3V @ 1.7A, 2.5V @ 450mA and 1.8V @ 450mA
TEXT -416 768 Left 0 ;Note:\n  If the simulation model is not found please update with the "Sync Release" command from the "Tools" menu.\n  It remains the customer's responsibility to verify proper and reliable operation in the actual application.\n  Component substitution and printed circuit board layout may significantly affect circuit performance or reliability.\n  Contact your local sales representative for assistance. This circuit is distributed to customers only for use with LTC parts.\n  Copyright © 2011 Linear Technology Inc. All rights reserved.
