Version 4
SHEET 1 1140 708
WIRE -32 -48 -160 -48
WIRE 224 -48 -32 -48
WIRE -160 -32 -160 -48
WIRE 224 -32 224 -48
WIRE -32 -16 -32 -48
WIRE 80 0 64 0
WIRE 576 0 368 0
WIRE -160 64 -160 48
WIRE -32 96 -32 64
WIRE 80 96 -32 96
WIRE 400 96 368 96
WIRE -32 112 -32 96
WIRE 400 112 400 96
WIRE -32 192 -32 176
WIRE 80 192 64 192
WIRE 400 192 400 176
WIRE 400 192 368 192
WIRE 480 192 400 192
WIRE 576 192 576 0
WIRE 576 192 560 192
WIRE 672 192 576 192
WIRE 752 192 672 192
WIRE 400 208 400 192
WIRE 672 208 672 192
WIRE 752 208 752 192
WIRE -48 288 -112 288
WIRE 80 288 32 288
WIRE 400 288 400 272
WIRE 400 288 368 288
WIRE 576 288 576 192
WIRE 672 304 672 272
WIRE 752 304 752 288
WIRE -96 384 -112 384
WIRE 0 384 -16 384
WIRE 80 384 64 384
WIRE 576 384 576 368
WIRE 576 384 368 384
WIRE 576 400 576 384
WIRE 176 448 176 432
WIRE 272 448 272 432
WIRE 576 496 576 480
FLAG -112 384 0
FLAG -112 288 0
FLAG 176 448 0
FLAG 272 448 0
FLAG 576 496 0
FLAG 672 304 0
FLAG 752 304 0
FLAG -160 64 0
FLAG -32 192 0
FLAG -160 -48 IN
FLAG 752 192 OUT
FLAG 64 192 0
SYMBOL PowerProducts\\LT3695 224 192 R0
SYMATTR InstName U1
SYMBOL voltage -160 -48 R0
WINDOW 123 0 0 Left 0
WINDOW 39 0 0 Left 0
SYMATTR InstName V1
SYMATTR Value 12
SYMBOL cap 64 368 R90
WINDOW 0 0 32 VBottom 0
WINDOW 3 32 32 VTop 0
SYMATTR InstName C1
SYMATTR Value 470p
SYMBOL res 560 272 R0
SYMATTR InstName R1
SYMATTR Value 536K
SYMBOL res 560 384 R0
SYMATTR InstName R2
SYMATTR Value 102K
SYMBOL res 0 368 R90
WINDOW 0 0 56 VBottom 0
WINDOW 3 32 56 VTop 0
SYMATTR InstName R3
SYMATTR Value 16.2K
SYMBOL res 48 272 R90
WINDOW 0 0 56 VBottom 0
WINDOW 3 32 56 VTop 0
SYMATTR InstName R4
SYMATTR Value 40.2K
SYMBOL cap 384 112 R0
WINDOW 3 24 57 Left 0
SYMATTR Value .22µ
SYMATTR InstName C2
SYMBOL schottky 384 272 M180
WINDOW 0 27 64 Left 0
WINDOW 3 24 0 Left 0
SYMATTR InstName D1
SYMATTR Value MBRS140
SYMATTR Description Diode
SYMATTR Type diode
SYMBOL ind 464 208 R270
WINDOW 0 32 56 VTop 0
WINDOW 3 5 56 VBottom 0
SYMATTR InstName L1
SYMATTR Value 10µ
SYMATTR SpiceLine Rser=.1
SYMBOL cap 656 208 R0
SYMATTR InstName C3
SYMATTR Value 10µ
SYMBOL cap -48 112 R0
SYMATTR InstName C4
SYMATTR Value .1µ
SYMBOL res -48 -32 R0
SYMATTR InstName R5
SYMATTR Value 10K
SYMBOL res 736 192 R0
SYMATTR InstName Rload
SYMATTR Value 5
TEXT 712 424 Left 0 !.tran 500u startup
TEXT 224 -64 Bottom 0 ;LT3695 - 1A Fault Tolerant Micropower Step-Down Regulator\nInput: 12V   Output: 5V @ 1A
TEXT -336 512 Left 0 ;Note:\n  If the simulation model is not found please update with the "Sync Release" command from the "Tools" menu.\n  It remains the customer's responsibility to verify proper and reliable operation in the actual application.\n  Component substitution and printed circuit board layout may significantly affect circuit performance or reliability\n  Contact your local sales representative for assistance. This circuit is distributed to customers only for use with LTC parts\n  Copyright © 2010 Linear Technology Inc. All rights reserved.
