Version 4
SHEET 1 3104 1312
WIRE -176 -816 -256 -816
WIRE 240 -816 -176 -816
WIRE 400 -816 240 -816
WIRE 528 -816 400 -816
WIRE -176 -800 -176 -816
WIRE 400 -800 400 -816
WIRE 528 -800 528 -816
WIRE 112 -784 -64 -784
WIRE 112 -752 112 -784
WIRE 144 -752 128 -752
WIRE 224 -752 208 -752
WIRE 240 -752 240 -816
WIRE -176 -704 -176 -720
WIRE -64 -704 -64 -784
WIRE -64 -704 -176 -704
WIRE 48 -704 -64 -704
WIRE 128 -704 128 -752
WIRE 128 -704 48 -704
WIRE 224 -704 224 -752
WIRE 304 -704 224 -704
WIRE 400 -704 400 -720
WIRE 400 -704 304 -704
WIRE 528 -704 528 -736
WIRE 528 -704 400 -704
WIRE -176 -688 -176 -704
WIRE 400 -672 400 -704
WIRE 128 -656 128 -704
WIRE 144 -656 128 -656
WIRE 224 -656 224 -704
WIRE 224 -656 208 -656
WIRE -176 -608 -176 -624
WIRE 112 -592 112 -656
WIRE 128 -592 112 -592
WIRE 240 -592 240 -656
WIRE 240 -592 224 -592
WIRE 400 -576 400 -592
WIRE -320 -512 -656 -512
WIRE -256 -512 -256 -816
WIRE -256 -512 -320 -512
WIRE -176 -512 -256 -512
WIRE -48 -512 -80 -512
WIRE 368 -512 -48 -512
WIRE 416 -512 368 -512
WIRE 512 -512 480 -512
WIRE -656 -496 -656 -512
WIRE -48 -496 -48 -512
WIRE -256 -480 -256 -512
WIRE -320 -416 -320 -512
WIRE -256 -400 -256 -416
WIRE -96 -400 -96 -464
WIRE -96 -400 -256 -400
WIRE -48 -400 -48 -416
WIRE -48 -400 -96 -400
WIRE -656 -384 -656 -416
WIRE 128 -384 128 -592
WIRE 224 -384 224 -592
WIRE -320 -320 -320 -336
WIRE 16 -320 -320 -320
WIRE 368 -320 368 -512
WIRE 368 -320 336 -320
WIRE -320 -304 -320 -320
WIRE -96 -224 -96 -400
WIRE -80 -224 -96 -224
WIRE 16 -224 0 -224
WIRE 432 -224 336 -224
WIRE 560 -224 432 -224
WIRE -320 -208 -320 -224
WIRE 432 -208 432 -224
WIRE 560 -176 560 -224
WIRE 432 -128 432 -144
WIRE 432 -128 336 -128
WIRE 432 -112 432 -128
WIRE 560 -32 560 -96
WIRE 560 -32 336 -32
WIRE 16 64 -16 64
WIRE 432 64 432 -48
WIRE 432 64 336 64
WIRE 560 64 560 48
WIRE 560 64 432 64
WIRE 672 64 560 64
WIRE 432 80 432 64
WIRE 672 80 672 64
WIRE -80 160 -96 160
WIRE 16 160 0 160
WIRE 432 176 432 144
WIRE 672 176 672 160
WIRE 16 256 -16 256
WIRE 176 336 176 320
FLAG 512 -512 0
FLAG -320 -208 0
FLAG -96 160 0
FLAG -16 256 0
FLAG 400 -576 0
FLAG -176 -608 0
FLAG 176 336 0
FLAG 432 176 0
FLAG 672 176 0
FLAG -16 64 0
FLAG 672 64 OUT
FLAG -656 -512 IN
FLAG -656 -384 0
SYMBOL res 544 -48 R0
SYMATTR InstName R1
SYMATTR Value 24m
SYMBOL ind 544 -192 R0
SYMATTR InstName L1
SYMATTR Value 3.3µ
SYMATTR SpiceLine Ipk=6.5 Rser=0.0172 Rpar=2464 Cpar=1.81p mfg="Wurth Elektronik" pn="744311330 WE-HCI 7040"
SYMBOL cap 416 -208 R0
SYMATTR Value 1µ
SYMATTR InstName C1
SYMATTR SpiceLine V=10 Irms=10.541 Rser=0.004 Lser=0 mfg="KEMET" pn="C0603C105K8PAC" type="X5R"
SYMBOL res -336 -320 M180
WINDOW 0 36 76 Left 2
WINDOW 3 36 40 Left 2
SYMATTR InstName R2
SYMATTR Value 90.9K
SYMBOL res -336 -208 M180
WINDOW 0 36 76 Left 2
WINDOW 3 36 40 Left 2
SYMATTR InstName R3
SYMATTR Value 12.1K
SYMBOL res 16 144 R90
WINDOW 0 0 56 VBottom 2
WINDOW 3 32 56 VTop 2
SYMATTR InstName R4
SYMATTR Value 54.9K
SYMBOL cap 416 -496 R270
WINDOW 3 0 32 VBottom 2
WINDOW 0 32 32 VTop 2
WINDOW 40 -28 32 VBottom 2
SYMATTR Value 22µ
SYMATTR InstName C2
SYMATTR SpiceLine Rser=.005
SYMBOL schottky 416 -48 M180
WINDOW 0 24 64 Left 2
WINDOW 3 24 0 Left 2
SYMATTR InstName D1
SYMATTR Value 1N5819
SYMATTR Description Diode
SYMATTR Type diode
SYMBOL res 384 -704 M180
WINDOW 0 36 76 Left 2
WINDOW 3 36 40 Left 2
SYMATTR InstName R5
SYMATTR Value 100K
SYMBOL res 384 -576 M180
WINDOW 0 36 76 Left 2
WINDOW 3 36 40 Left 2
SYMATTR InstName R6
SYMATTR Value 61.9K
SYMBOL res -192 -816 R0
SYMATTR InstName R7
SYMATTR Value 10K
SYMBOL cap 512 -736 M180
WINDOW 0 24 56 Left 2
WINDOW 3 24 8 Left 2
SYMATTR InstName C3
SYMATTR Value 100p
SYMBOL npn 48 -752 R0
WINDOW 3 56 109 Right 2
WINDOW 0 40 -3 Right 2
SYMATTR Value 2N3904
SYMATTR InstName Q1
SYMBOL npn 304 -752 M0
WINDOW 3 47 110 Right 2
WINDOW 0 48 -7 Right 2
SYMATTR Value 2N3904
SYMATTR InstName Q2
SYMBOL zener -192 -624 M180
WINDOW 0 24 64 Left 2
WINDOW 3 24 0 Left 2
SYMATTR InstName D2
SYMATTR Value BZX84C6V2L
SYMATTR Description Diode
SYMATTR Type diode
SYMBOL diode 144 -736 R270
WINDOW 0 32 32 VTop 2
WINDOW 3 0 32 VBottom 2
SYMATTR InstName D3
SYMATTR Value 1N914
SYMBOL cap 416 80 R0
SYMATTR Value 22µ
SYMATTR InstName C4
SYMATTR SpiceLine V=10 Irms=10.206 Rser=0.005 Lser=0 mfg="KEMET" pn="C1210C226K8PAC" type="X5R"
SYMBOL Misc\\battery 672 64 R0
SYMATTR InstName VBAT
SYMATTR Value 7
SYMATTR Value2 rser=20m
SYMBOL diode 208 -640 M270
WINDOW 0 32 32 VTop 2
WINDOW 3 0 32 VBottom 2
SYMATTR InstName D4
SYMATTR Value 1N914
SYMBOL res -64 -512 R0
SYMATTR InstName R8
SYMATTR Value 100K
SYMBOL zener -272 -416 M180
WINDOW 0 24 64 Left 2
WINDOW 3 24 0 Left 2
SYMATTR InstName D5
SYMATTR Value BZX84C10L
SYMATTR Description Diode
SYMATTR Type diode
SYMBOL res 16 -240 R90
WINDOW 0 0 56 VBottom 2
WINDOW 3 32 56 VTop 2
SYMATTR InstName R9
SYMATTR Value 10K
SYMBOL PowerProducts\\LT3651-8.4 176 -32 R0
SYMATTR InstName U1
SYMBOL pmos -176 -464 R270
WINDOW 0 83 50 VTop 2
WINDOW 3 53 48 VTop 2
SYMATTR InstName Q3
SYMATTR Value Si4427DY
SYMBOL current -656 -416 M180
WINDOW 0 24 80 Left 2
WINDOW 3 24 0 Left 2
WINDOW 123 0 0 Left 2
WINDOW 39 0 0 Left 2
SYMATTR InstName I1
SYMATTR Value PWL(0 0 .5m 2 1m 0)
TEXT 488 328 Left 2 !.tran 1m
TEXT -648 -560 Bottom 3 ;Solar Panel
TEXT 144 -824 Bottom 2 ;LT3651 - 8.4 - Monolithic 4A High Voltage 2-Cell Li-Ion Battery Charger\n4A, 2-Cell Charger with Maximum Power Point Control\nInput: 16V to 32V, 6.2 Input Current Limit    Outputs: 8.4V @ 4A
TEXT -672 352 Left 2 ;Notes:\n  If the simulation model is not found please update with the "Sync Release" command from the "Tools" menu.\n  It remains the customer's responsibility to verify proper and reliable operation in the actual application.\n  Component substitution and printed circuit board layout may significantly affect circuit performance or reliability.\n  Contact your local sales representative for assistance. This circuit is distributed to customers only for use with LTC parts.\n  Copyright © 2013 Linear Technology Inc. All rights reserved.
CIRCLE Normal -512 -256 -800 -656 2
