Version 4
SHEET 1 1924 1036
WIRE -96 -160 -464 -160
WIRE 160 -160 -96 -160
WIRE -464 -144 -464 -160
WIRE 816 -144 -352 -144
WIRE 160 -128 160 -160
WIRE -96 -96 -96 -160
WIRE -64 -96 -96 -96
WIRE 816 -96 816 -144
WIRE 816 -96 400 -96
WIRE -464 -48 -464 -64
WIRE -352 0 -352 -144
WIRE -224 0 -352 0
WIRE -64 0 -144 0
WIRE 448 0 400 0
WIRE 448 16 448 0
WIRE -64 96 -80 96
WIRE 448 96 448 80
WIRE 448 96 400 96
WIRE 528 96 448 96
WIRE 640 96 608 96
WIRE 720 96 640 96
WIRE 816 96 816 -96
WIRE 816 96 720 96
WIRE 912 96 816 96
WIRE 448 112 448 96
WIRE 816 112 816 96
WIRE 912 112 912 96
WIRE 720 128 720 96
WIRE -208 192 -256 192
WIRE -64 192 -128 192
WIRE 448 192 448 176
WIRE 448 192 400 192
WIRE 640 192 640 96
WIRE 816 208 816 176
WIRE 912 208 912 192
WIRE -352 240 -352 0
WIRE -240 288 -256 288
WIRE -160 288 -176 288
WIRE -64 288 -80 288
WIRE 720 288 720 208
WIRE 720 288 400 288
WIRE 720 304 720 288
WIRE -352 384 -352 320
WIRE -64 384 -352 384
WIRE 640 384 640 272
WIRE 640 384 400 384
WIRE 720 400 720 384
WIRE -352 432 -352 384
WIRE 640 432 640 384
WIRE -64 480 -288 480
WIRE 576 480 400 480
WIRE -352 576 -352 528
WIRE -352 576 -528 576
WIRE -288 576 -352 576
WIRE -160 576 -208 576
WIRE -64 576 -160 576
WIRE 464 576 400 576
WIRE 528 576 464 576
WIRE 640 576 640 528
WIRE 640 576 608 576
WIRE 752 576 640 576
WIRE -528 592 -528 576
WIRE -352 592 -352 576
WIRE -160 592 -160 576
WIRE 464 592 464 576
WIRE 640 592 640 576
WIRE 752 592 752 576
WIRE 0 672 0 656
WIRE 112 672 112 656
WIRE 224 672 224 656
WIRE 336 672 336 656
WIRE -528 688 -528 672
WIRE -352 688 -352 656
WIRE -160 688 -160 672
WIRE 464 688 464 672
WIRE 640 688 640 656
WIRE 752 688 752 672
WIRE 0 752 0 736
WIRE 112 752 112 736
WIRE 224 752 224 736
FLAG -256 288 0
FLAG -464 -48 0
FLAG 912 96 OUT1
FLAG 752 576 OUT3
FLAG 816 208 0
FLAG 640 688 0
FLAG 912 208 0
FLAG 752 688 0
FLAG 464 688 0
FLAG 112 752 0
FLAG -528 576 OUT2
FLAG -352 688 0
FLAG -528 688 0
FLAG -160 688 0
FLAG 336 672 0
FLAG 224 752 0
FLAG 0 752 0
FLAG 720 400 0
FLAG -256 192 0
FLAG -464 -160 IN
SYMBOL ind 512 112 R270
WINDOW 0 32 56 VTop 0
WINDOW 3 5 56 VBottom 0
SYMATTR InstName L1
SYMATTR Value 4.7µ
SYMATTR SpiceLine Rpar=2K
SYMBOL cap 432 80 M180
WINDOW 0 25 49 Left 0
WINDOW 3 25 14 Left 0
SYMATTR InstName C1
SYMATTR Value 0.22µ
SYMBOL res 704 112 R0
SYMATTR InstName R1
SYMATTR Value 34K
SYMBOL schottky 432 176 M180
WINDOW 0 30 64 Left 0
WINDOW 3 24 0 Left 0
SYMATTR InstName D1
SYMATTR Value MBRS340
SYMATTR Description Diode
SYMATTR Type diode
SYMBOL cap 800 112 R0
SYMATTR InstName C2
SYMATTR Value 47µ
SYMBOL cap 96 672 R0
SYMATTR InstName C3
SYMATTR Value 1n
SYMBOL voltage -464 -160 R0
WINDOW 123 0 0 Left 0
WINDOW 39 0 0 Left 0
SYMATTR InstName V1
SYMATTR Value 12
SYMBOL npn 576 432 R0
SYMATTR InstName Q1
SYMATTR Value 2N2219A
SYMBOL res 624 560 R90
WINDOW 0 0 56 VBottom 0
WINDOW 3 32 56 VTop 0
SYMATTR InstName R2
SYMATTR Value 15.4K
SYMBOL res 448 576 R0
SYMATTR InstName R3
SYMATTR Value 11K
SYMBOL cap 624 592 R0
SYMATTR InstName C4
SYMATTR Value 2.2µ
SYMBOL res -64 272 R90
WINDOW 0 0 56 VBottom 0
WINDOW 3 32 56 VTop 0
SYMATTR InstName R4
SYMATTR Value 41.2K
SYMBOL cap -16 672 R0
SYMATTR InstName C5
SYMATTR Value 1n
SYMBOL cap 208 672 R0
SYMATTR InstName C6
SYMATTR Value 1n
SYMBOL res -112 176 R90
WINDOW 0 0 56 VBottom 0
WINDOW 3 32 56 VTop 0
SYMATTR InstName R5
SYMATTR Value 51.1K
SYMBOL cap -176 272 R90
WINDOW 0 0 32 VBottom 0
WINDOW 3 32 32 VTop 0
SYMATTR InstName C7
SYMATTR Value 330p
SYMBOL res 704 288 R0
SYMATTR InstName R6
SYMATTR Value 10K
SYMBOL res 624 176 R0
SYMATTR InstName R7
SYMATTR Value 0.1
SYMBOL npn -288 432 M0
SYMATTR InstName Q2
SYMATTR Value 2N2219A
SYMBOL res -304 560 M90
WINDOW 0 0 56 VBottom 0
WINDOW 3 32 56 VTop 0
SYMATTR InstName R8
SYMATTR Value 24.9K
SYMBOL res -176 576 R0
SYMATTR InstName R9
SYMATTR Value 10.7K
SYMBOL cap -368 592 R0
SYMATTR InstName C8
SYMATTR Value 2.2µ
SYMBOL res -368 224 R0
SYMATTR InstName R10
SYMATTR Value 0.1
SYMBOL res -240 16 R270
WINDOW 0 32 56 VTop 0
WINDOW 3 0 56 VBottom 0
SYMATTR InstName R11
SYMATTR Value 100K
SYMBOL PowerProducts\\LT3694-1 160 288 R0
SYMATTR InstName U1
SYMBOL res -544 576 R0
SYMATTR InstName Rload2
SYMATTR Value 5.56
SYMBOL res 736 576 R0
SYMATTR InstName Rload3
SYMATTR Value 4
SYMBOL res 896 96 R0
SYMATTR InstName Rload1
SYMATTR Value 1.93
TEXT 888 736 Left 0 !.tran 500u startup
TEXT 168 -168 Bottom 0 ;LT3694-1 - 36V, 2.6A Monolithic Buck Regulator With Dual LDO and Clock Out\nInput: 12V    Outputs: 3.3V @ 1.7A, 2.5V @ 450mA and 1.8V @ 450mA
TEXT -416 760 Left 0 ;Note:\n  If the simulation model is not found please update with the "Sync Release" command from the "Tools" menu.\n  It remains the customer's responsibility to verify proper and reliable operation in the actual application.\n  Component substitution and printed circuit board layout may significantly affect circuit performance or reliability.\n  Contact your local sales representative for assistance. This circuit is distributed to customers only for use with LTC parts.\n  Copyright © 2011 Linear Technology Inc. All rights reserved.
