Version 4
SHEET 1 1564 764
WIRE -64 -128 -176 -128
WIRE 240 -128 -64 -128
WIRE 320 -128 240 -128
WIRE 560 -128 400 -128
WIRE 608 -128 560 -128
WIRE 736 -128 672 -128
WIRE 800 -128 736 -128
WIRE 896 -128 800 -128
WIRE 992 -128 896 -128
WIRE -176 -112 -176 -128
WIRE 800 -112 800 -128
WIRE 896 -112 896 -128
WIRE 992 -112 992 -128
WIRE 112 -80 48 -80
WIRE 416 -80 192 -80
WIRE -64 -64 -64 -128
WIRE 240 -32 240 -128
WIRE -176 -16 -176 -32
WIRE 800 -16 800 -48
WIRE 896 -16 896 -48
WIRE 992 -16 992 -32
WIRE -64 32 -64 16
WIRE 80 32 -64 32
WIRE 416 32 416 -80
WIRE 416 32 400 32
WIRE 432 32 416 32
WIRE 512 32 496 32
WIRE -64 48 -64 32
WIRE 48 128 48 -80
WIRE 80 128 48 128
WIRE 736 128 736 -128
WIRE 736 128 400 128
WIRE -64 144 -64 128
WIRE 560 144 560 -128
WIRE 0 224 -32 224
WIRE 80 224 64 224
WIRE 512 224 400 224
WIRE 560 256 560 240
WIRE 560 256 432 256
WIRE 560 272 560 256
WIRE 736 288 736 128
WIRE -16 320 -32 320
WIRE 80 320 64 320
WIRE 432 320 432 256
WIRE 432 320 400 320
WIRE 560 368 560 352
WIRE -96 416 -112 416
WIRE 0 416 -16 416
WIRE 80 416 64 416
WIRE 736 416 736 368
WIRE 736 416 400 416
WIRE 736 432 736 416
WIRE 240 496 240 480
WIRE 736 528 736 512
FLAG 240 496 0
FLAG -112 416 0
FLAG -32 320 0
FLAG -32 224 0
FLAG 512 32 0
FLAG -176 -16 0
FLAG -64 144 0
FLAG -176 -128 IN
FLAG 560 368 0
FLAG 736 528 0
FLAG 800 -16 0
FLAG 896 -16 0
FLAG 992 -16 0
FLAG 992 -128 OUT
SYMBOL PowerProducts\\LT3759 240 224 R0
SYMATTR InstName U1
SYMBOL cap 64 400 R90
WINDOW 39 53 32 VTop 2
WINDOW 0 0 32 VBottom 2
WINDOW 3 32 32 VTop 2
SYMATTR InstName C1
SYMATTR Value 22n
SYMBOL res 80 304 R90
WINDOW 0 0 56 VBottom 2
WINDOW 3 32 56 VTop 2
SYMATTR InstName R1
SYMATTR Value 16.9K
SYMBOL cap 64 208 R90
WINDOW 0 0 32 VBottom 2
WINDOW 3 32 32 VTop 2
SYMATTR InstName C2
SYMATTR Value .02µ
SYMBOL voltage -176 -128 R0
WINDOW 123 0 0 Left 2
WINDOW 39 0 0 Left 2
SYMATTR InstName V1
SYMATTR Value 2.6
SYMBOL cap 432 48 R270
WINDOW 0 32 32 VTop 2
WINDOW 3 0 32 VBottom 2
SYMATTR InstName C3
SYMATTR Value 4.7µ
SYMBOL res -80 -80 R0
SYMATTR InstName R2
SYMATTR Value 348K
SYMBOL res -80 32 R0
SYMATTR InstName R3
SYMATTR Value 887K
SYMBOL res 208 -96 R90
WINDOW 0 0 56 VBottom 2
WINDOW 3 32 56 VTop 2
SYMATTR InstName R4
SYMATTR Value 100K
SYMBOL ind2 416 -112 M270
WINDOW 0 32 56 VTop 2
WINDOW 3 5 56 VBottom 2
SYMATTR InstName L1
SYMATTR Value 2.2µ
SYMATTR Type ind
SYMATTR SpiceLine Rser=50m
SYMBOL nmos 512 144 R0
WINDOW 0 56 5 Left 2
WINDOW 3 60 79 Left 2
SYMATTR InstName Q1
SYMATTR Value Si4838DY
SYMBOL res 544 256 R0
SYMATTR InstName R5
SYMATTR Value 5m
SYMBOL schottky 608 -112 R270
WINDOW 0 32 32 VTop 2
WINDOW 3 0 32 VBottom 2
SYMATTR InstName D1
SYMATTR Value DFLS220L
SYMATTR Description Diode
SYMATTR Type diode
SYMBOL res 720 272 R0
SYMATTR InstName R6
SYMATTR Value 34K
SYMBOL res 720 416 R0
SYMATTR InstName R7
SYMATTR Value 15.8K
SYMBOL cap 880 -112 R0
SYMATTR InstName C6
SYMATTR Value 100µ
SYMATTR SpiceLine V=10 Irms=8.919 Rser=0.005 Lser=0 mfg="KEMET" pn="C1210C106K8PAC" type="X5R"
SYMBOL res 976 -128 R0
SYMATTR InstName Rload
SYMATTR Value 5
SYMBOL res 0 400 R90
WINDOW 0 0 56 VBottom 2
WINDOW 3 32 56 VTop 2
SYMATTR InstName R8
SYMATTR Value 5.1K
SYMBOL cap 784 -112 R0
SYMATTR InstName C7
SYMATTR Value 100µ
SYMATTR SpiceLine V=10 Irms=8.919 Rser=0.005 Lser=0 mfg="KEMET" pn="C1210C106K8PAC" type="X5R"
TEXT 888 488 Left 2 !.tran 2m startup
TEXT 432 -176 Bottom 2 ;LT3759 - Wide Input Voltage Range Boost/SEPIC/Inverting Controller\nBoost Converter with Low Input Voltage Range\nInput: 1.8V to 4.5V (2.5V Startup, 1.7V Shutdown)       Output: 5V@2.0A, Fsw = 485kHz
TEXT -264 544 Left 2 ;Note:\n  If the simulation model is not found please update with the "Sync Release" command from the "Tools" menu.\n  It remains the customer's responsibility to verify proper and reliable operation in the actual application.\n  Component substitution and printed circuit board layout may significantly affect circuit performance or reliability.\n  Contact your local sales representative for assistance. This circuit is distributed to customers only for use with LTC parts.\n  Copyright © 2011 Linear Technology Inc. All rights reserved.
