Version 4
SHEET 1 2652 1096
WIRE 96 -336 96 -352
WIRE 224 -336 224 -352
WIRE 1696 -304 480 -304
WIRE 608 -272 352 -272
WIRE 768 -272 608 -272
WIRE 896 -272 768 -272
WIRE 224 -256 224 -272
WIRE 480 -256 480 -304
WIRE 480 -256 224 -256
WIRE 896 -256 896 -272
WIRE 96 -240 96 -272
WIRE 224 -240 224 -256
WIRE 352 -240 352 -272
WIRE 768 -240 768 -272
WIRE -192 -176 -304 -176
WIRE 0 -176 -192 -176
WIRE 480 -176 480 -192
WIRE 480 -176 448 -176
WIRE 608 -160 608 -272
WIRE -304 -144 -304 -176
WIRE 768 -144 768 -176
WIRE 896 -144 896 -176
WIRE -96 -80 -112 -80
WIRE 0 -80 -16 -80
WIRE 560 -80 448 -80
WIRE 480 -64 480 -176
WIRE -304 -32 -304 -64
WIRE 0 16 -128 16
WIRE 480 16 480 0
WIRE 480 16 448 16
WIRE 608 16 608 -64
WIRE 608 16 480 16
WIRE 704 16 608 16
WIRE 736 16 704 16
WIRE 848 16 816 16
WIRE 864 16 848 16
WIRE 960 16 944 16
WIRE 992 16 960 16
WIRE 1168 16 992 16
WIRE 1360 16 1168 16
WIRE 1472 16 1360 16
WIRE 1552 16 1472 16
WIRE -128 32 -128 16
WIRE 608 32 608 16
WIRE 1472 48 1472 16
WIRE 1552 48 1552 16
WIRE 704 64 704 16
WIRE 1168 80 1168 16
WIRE 1360 80 1360 16
WIRE 0 112 -16 112
WIRE 560 112 448 112
WIRE -128 128 -128 112
WIRE 1472 144 1472 112
WIRE 1552 144 1552 112
WIRE 608 160 608 128
WIRE 704 160 704 128
WIRE 704 160 608 160
WIRE 608 176 608 160
WIRE -80 208 -96 208
WIRE 0 208 -16 208
WIRE 608 208 448 208
WIRE 736 208 608 208
WIRE 848 208 848 16
WIRE 848 208 816 208
WIRE 1168 208 1168 144
WIRE 1360 208 1360 144
WIRE 608 224 608 208
WIRE 1120 224 1088 224
WIRE 1312 224 1280 224
WIRE -192 304 -192 -176
WIRE -32 304 -192 304
WIRE 0 304 -32 304
WIRE 608 304 608 288
WIRE 608 304 448 304
WIRE 736 304 608 304
WIRE 960 304 960 16
WIRE 960 304 816 304
WIRE 992 304 992 16
WIRE 1168 336 1168 304
WIRE 1360 336 1360 304
WIRE 1696 352 1696 -304
WIRE -32 400 -32 304
WIRE 0 400 -32 400
WIRE 624 400 448 400
WIRE 992 400 992 384
WIRE 992 400 624 400
WIRE 624 416 624 400
WIRE 992 416 992 400
WIRE 1088 416 1088 224
WIRE 1120 416 1088 416
WIRE 1280 416 1280 224
WIRE 1312 416 1280 416
WIRE 1168 448 1168 432
WIRE 1360 464 1360 432
WIRE 1696 464 1696 432
WIRE 1696 464 1360 464
WIRE 1696 480 1696 464
WIRE 0 496 -128 496
WIRE 544 496 448 496
WIRE 624 496 624 480
WIRE 1360 496 1360 464
WIRE -128 512 -128 496
WIRE 992 512 992 496
WIRE 544 544 544 496
WIRE 1088 544 1088 416
WIRE 1088 544 544 544
WIRE 0 592 -16 592
WIRE 512 592 448 592
WIRE 1360 592 1360 560
WIRE 1696 592 1696 560
WIRE -128 608 -128 592
WIRE 512 640 512 592
WIRE 1280 640 1280 416
WIRE 1280 640 512 640
WIRE 128 672 128 656
WIRE 320 672 320 656
WIRE 128 752 128 736
WIRE 320 752 320 736
WIRE 128 848 128 832
WIRE 320 848 320 832
FLAG 896 -144 0
FLAG 896 -272 IN
FLAG 608 176 0
FLAG 224 -352 0
FLAG 96 -352 0
FLAG 992 512 0
FLAG -16 592 0
FLAG -112 -80 0
FLAG -16 112 0
FLAG -128 128 0
FLAG -304 -32 0
FLAG -128 608 0
FLAG 1552 144 0
FLAG 1360 592 0
FLAG 1168 448 0
FLAG 1472 144 0
FLAG 768 -144 0
FLAG 128 848 0
FLAG 320 848 0
FLAG -96 208 0
FLAG 1696 592 0
FLAG 624 496 0
SYMBOL PowerProducts\\LT3743 224 208 R0
SYMATTR InstName U1
SYMBOL voltage 896 -272 R0
WINDOW 123 0 0 Left 0
WINDOW 39 0 0 Left 0
SYMATTR InstName V1
SYMATTR Value 12
SYMBOL nmos 560 -160 R0
WINDOW 3 61 102 Left 0
SYMATTR Value RJK0305DPB
SYMATTR InstName Q1
SYMBOL nmos 560 32 R0
WINDOW 3 -97 107 Left 0
SYMATTR Value RJK0301DPB
SYMATTR InstName Q2
SYMBOL schottky 464 -256 R0
SYMATTR InstName D1
SYMATTR Value 1N5817
SYMATTR Description Diode
SYMATTR Type diode
SYMBOL cap 208 -272 M180
WINDOW 0 24 64 Left 0
WINDOW 3 24 8 Left 0
SYMATTR InstName C1
SYMATTR Value 2.2µ
SYMBOL cap 80 -272 M180
WINDOW 0 24 64 Left 0
WINDOW 3 24 8 Left 0
SYMATTR InstName C2
SYMATTR Value .002µ
SYMBOL cap 464 -64 R0
SYMATTR InstName C3
SYMATTR Value 0.22µ
SYMBOL ind 720 32 R270
WINDOW 0 32 56 VTop 0
WINDOW 3 5 56 VBottom 0
SYMATTR InstName L1
SYMATTR Value 1.3µ
SYMATTR SpiceLine Rser=1.8m Rpar=5K
SYMBOL res 848 32 R270
WINDOW 0 32 56 VTop 0
WINDOW 3 0 56 VBottom 0
SYMATTR InstName R1
SYMATTR Value 2.5m
SYMBOL LED 1536 48 R0
SYMATTR InstName D2
SYMATTR Value PT-121-B
SYMATTR Description Diode
SYMATTR Type diode
SYMBOL res 976 400 R0
SYMATTR InstName R2
SYMATTR Value 10K
SYMBOL res 976 288 R0
SYMATTR InstName R3
SYMATTR Value 51K
SYMBOL cap 304 672 R0
SYMATTR Value 5.6n
SYMATTR InstName C4
SYMBOL res 0 -96 R90
WINDOW 0 0 56 VBottom 0
WINDOW 3 32 56 VTop 0
SYMATTR InstName R4
SYMATTR Value 100K
SYMBOL voltage -128 16 R0
WINDOW 123 0 0 Left 0
WINDOW 39 0 0 Left 0
SYMATTR InstName V2
SYMATTR Value 2
SYMBOL voltage -304 -160 R0
SYMATTR InstName V3
SYMATTR Value 5
SYMBOL voltage -128 496 R0
WINDOW 3 28 99 Left 0
WINDOW 123 0 0 Left 0
WINDOW 39 0 0 Left 0
SYMATTR Value 2
SYMATTR InstName V4
SYMBOL nmos 1312 336 R0
SYMATTR InstName Q3
SYMATTR Value Si7234DP
SYMBOL nmos 1120 336 R0
WINDOW 3 50 94 Left 0
SYMATTR Value Si7234DP
SYMATTR InstName Q4
SYMBOL cap 1152 80 R0
SYMATTR InstName C5
SYMATTR Value 100µ
SYMBOL cap 1344 80 R0
SYMATTR InstName C6
SYMATTR Value 1000µ
SYMATTR SpiceLine Rser=0.01
SYMBOL cap 1344 496 R0
SYMATTR InstName C7
SYMATTR Value 1000µ
SYMATTR SpiceLine Rser=0.01
SYMBOL res 832 192 R90
WINDOW 0 0 56 VBottom 0
WINDOW 3 32 56 VTop 0
SYMATTR InstName R5
SYMATTR Value 10
SYMBOL res 832 288 R90
WINDOW 0 0 56 VBottom 0
WINDOW 3 32 56 VTop 0
SYMATTR InstName R6
SYMATTR Value 10
SYMBOL schottky 720 128 R180
WINDOW 0 24 72 Left 0
WINDOW 3 24 0 Left 0
SYMATTR InstName D3
SYMATTR Value SS24
SYMATTR Description Diode
SYMATTR Type diode
SYMBOL cap 752 -240 R0
SYMATTR InstName C8
SYMATTR Value 120µ
SYMBOL res 304 736 R0
SYMATTR InstName R7
SYMATTR Value 51k
SYMBOL res 112 736 R0
SYMATTR InstName R8
SYMATTR Value 51k
SYMBOL cap 112 672 R0
SYMATTR InstName C9
SYMATTR Value 5.6n
SYMBOL cap 608 416 R0
SYMATTR InstName C10
SYMATTR Value 1n
SYMBOL cap -16 192 R90
WINDOW 0 0 32 VBottom 0
WINDOW 3 32 32 VTop 0
SYMATTR InstName C11
SYMATTR Value .001µ
SYMBOL nmos 1120 304 M180
WINDOW 3 56 93 Left 0
SYMATTR Value Si7234DP
SYMATTR InstName Q5
SYMBOL nmos 1312 304 M180
SYMATTR InstName Q6
SYMATTR Value Si7234DP
SYMBOL res 1680 336 R0
SYMATTR InstName R9
SYMATTR Value 3.01k
SYMBOL res 1680 464 R0
SYMATTR InstName R10
SYMATTR Value 2k
SYMBOL cap 1456 48 R0
SYMATTR InstName C12
SYMATTR Value 10µ
SYMBOL cap 592 224 R0
SYMATTR InstName C13
SYMATTR Value 33n
TEXT 968 704 Left 0 !.tran 2m startup
TEXT 360 -392 Bottom 0 ;LT3743 - High Current Synchronous Step-Down LED Driver with Three-State Control\nInput: 12V   Output: Up to 6V, 20A.
TEXT -144 864 Left 0 ;Note:\n  If the simulation model is not found please update with the "Sync Release" command from the "Tools" menu.\n  It remains the customer's responsibility to verify proper and reliable operation in the actual application.\n  Component substitution and printed circuit board layout may significantly affect circuit performance or reliability\n  Contact your local sales representative for assistance. This circuit is distributed to customers only for use with LTC parts\n  Copyright © 2009 Linear Technology Inc. All rights reserved.
