Version 4
SHEET 1 3376 680
WIRE 1488 -128 1376 -128
WIRE 1856 -128 1488 -128
WIRE 2112 -128 1856 -128
WIRE 2224 -128 2112 -128
WIRE 2416 -128 2224 -128
WIRE 2560 -128 2464 -128
WIRE 2656 -128 2624 -128
WIRE 2720 -128 2656 -128
WIRE 2816 -128 2720 -128
WIRE 1376 -112 1376 -128
WIRE 1488 -112 1488 -128
WIRE 2112 -112 2112 -128
WIRE 2224 -112 2224 -128
WIRE 2416 -112 2416 -128
WIRE 2464 -112 2464 -128
WIRE 2720 -112 2720 -128
WIRE 2816 -112 2816 -128
WIRE 1856 -80 1856 -128
WIRE 1376 -16 1376 -32
WIRE 1488 -16 1488 -32
WIRE 1696 -16 1488 -16
WIRE 2048 -16 2016 -16
WIRE 2112 -16 2112 -48
WIRE 2224 -16 2224 -32
WIRE 2224 -16 2112 -16
WIRE 2288 -16 2224 -16
WIRE 2416 -16 2416 -32
WIRE 2416 -16 2352 -16
WIRE 2464 -16 2464 -32
WIRE 2720 -16 2720 -48
WIRE 2816 -16 2816 -32
WIRE 1488 0 1488 -16
WIRE 2416 0 2416 -16
WIRE 1600 80 1584 80
WIRE 1696 80 1664 80
WIRE 2368 80 2016 80
WIRE 1488 96 1488 80
WIRE 2416 112 2416 96
WIRE 2416 112 2352 112
WIRE 2416 128 2416 112
WIRE 2656 144 2656 -128
WIRE 1600 176 1584 176
WIRE 1696 176 1680 176
WIRE 2352 176 2352 112
WIRE 2352 176 2016 176
WIRE 2416 224 2416 208
WIRE 1520 272 1504 272
WIRE 1600 272 1584 272
WIRE 1696 272 1680 272
WIRE 2656 272 2656 224
WIRE 2656 272 2016 272
WIRE 2656 288 2656 272
WIRE 1856 352 1856 336
WIRE 2656 384 2656 368
FLAG 1584 176 0
FLAG 2656 384 0
FLAG 1856 352 0
FLAG 2720 -16 0
FLAG 1504 272 0
FLAG 2816 -16 0
FLAG 1376 -16 0
FLAG 1584 80 0
FLAG 2048 48 0
FLAG 2816 -128 OUT
FLAG 1376 -128 IN
FLAG 1488 96 0
FLAG 2416 224 0
FLAG 2464 -16 0
SYMBOL NMOS 2368 0 R0
SYMATTR InstName Q1
SYMATTR Value Si4488DY
SYMBOL RES 1696 160 R90
WINDOW 0 0 56 VBottom 0
WINDOW 3 32 56 VTop 0
SYMATTR InstName R1
SYMATTR Value 42.2K
SYMBOL res 2640 272 R0
SYMATTR InstName R2
SYMATTR Value 15.8K
SYMBOL res 2640 128 R0
SYMATTR InstName R3
SYMATTR Value 34K
SYMBOL ind2 2400 -128 R0
WINDOW 0 -1 36 Right 0
WINDOW 3 0 68 Right 0
SYMATTR InstName L1
SYMATTR Value 20µ
SYMATTR Type ind
SYMATTR SpiceLine Rpar=3K
SYMBOL schottky 2560 -112 R270
WINDOW 0 32 32 VTop 0
WINDOW 3 0 32 VBottom 0
SYMATTR InstName D1
SYMATTR Value MBRS340
SYMBOL res 1696 256 R90
WINDOW 0 0 56 VBottom 0
WINDOW 3 32 56 VTop 0
SYMATTR InstName R4
SYMATTR Value 10K
SYMBOL cap 1584 256 R90
WINDOW 0 0 32 VBottom 0
WINDOW 3 32 32 VTop 0
SYMATTR InstName C2
SYMATTR Value .0068µ
SYMBOL VOLTAGE 1376 -128 R0
WINDOW 123 0 0 Left 0
WINDOW 39 0 0 Left 0
SYMATTR InstName V1
SYMATTR Value 48
SYMBOL polcap 2032 -16 R0
WINDOW 0 32 9 Left 0
WINDOW 3 34 49 Left 0
SYMATTR InstName C3
SYMATTR Value 4.7µ
SYMBOL cap 1664 64 R90
WINDOW 0 0 32 VBottom 0
WINDOW 3 32 32 VTop 0
SYMATTR InstName C4
SYMATTR Value .01µ
SYMBOL res 1472 -16 R0
SYMATTR InstName R5
SYMATTR Value 10K
SYMBOL res 1472 -128 R0
SYMATTR InstName R6
SYMATTR Value 105K
SYMBOL res 2400 112 R0
SYMATTR InstName R7
SYMATTR Value .04
SYMBOL PowerProducts\\LT3758 1856 128 R0
SYMATTR InstName U1
SYMBOL res 2208 -128 R0
SYMATTR InstName R8
SYMATTR Value 10K
SYMBOL cap 2096 -112 R0
SYMATTR InstName C6
SYMATTR Value .0047µ
SYMBOL diode 2352 -32 R90
WINDOW 0 0 32 VBottom 0
WINDOW 3 32 32 VTop 0
SYMATTR InstName D2
SYMATTR Value ES1D
SYMBOL ind2 2480 -16 R180
WINDOW 0 -6 78 Right 0
WINDOW 3 -5 40 Right 0
SYMATTR InstName L2
SYMATTR Value 1.5µ
SYMATTR Type ind
SYMATTR SpiceLine Rpar=1K
SYMBOL res 2800 -128 R0
SYMATTR InstName Rload
SYMATTR Value 2.5
SYMBOL cap 2704 -112 R0
SYMATTR InstName C1
SYMATTR Value 100µ
TEXT 2680 432 Left 0 !.tran 2m startup
TEXT 2440 -128 Bottom 0 !K1 L1 L2 1
TEXT 2048 -160 Bottom 0 ;LT3758 - Boost, Flyback, SEPIC and Inverting Controller\nInput: 48V       Output: 5V @ 2A
TEXT 1312 368 Left 0 ;Note:\n  If the simulation model is not found please update with the "Sync Release" command from the "Tools" menu.\n  It remains the customer's responsibility to verify proper and reliable operation in the actual application.\n  Component substitution and printed circuit board layout may significantly affect circuit performance or reliability.\n  Contact your local sales representative for assistance. This circuit is distributed to customers only for use with LTC parts.\n  Copyright © 2009 Linear Technology Inc. All rights reserved.
