Version 4
SHEET 1 2024 740
WIRE -800 -1808 -912 -1808
WIRE -592 -1808 -800 -1808
WIRE -560 -1808 -592 -1808
WIRE -464 -1808 -480 -1808
WIRE -384 -1808 -464 -1808
WIRE -48 -1808 -384 -1808
WIRE -32 -1808 -48 -1808
WIRE 48 -1808 32 -1808
WIRE -912 -1792 -912 -1808
WIRE -592 -1792 -592 -1808
WIRE -464 -1792 -464 -1808
WIRE -912 -1696 -912 -1712
WIRE -800 -1680 -800 -1808
WIRE -592 -1680 -592 -1712
WIRE -576 -1680 -592 -1680
WIRE -560 -1680 -576 -1680
WIRE -480 -1680 -496 -1680
WIRE -464 -1680 -464 -1712
WIRE -464 -1680 -480 -1680
WIRE -384 -1680 -384 -1808
WIRE -368 -1680 -384 -1680
WIRE -288 -1680 -304 -1680
WIRE -192 -1648 -192 -1664
WIRE -576 -1632 -576 -1680
WIRE -480 -1632 -480 -1680
WIRE -384 -1632 -384 -1680
WIRE -800 -1568 -800 -1600
WIRE -672 -1568 -800 -1568
WIRE -240 -1568 -288 -1568
WIRE -192 -1568 -192 -1584
WIRE -192 -1568 -240 -1568
WIRE -192 -1552 -192 -1568
WIRE -800 -1536 -800 -1568
WIRE -672 -1472 -704 -1472
WIRE -192 -1472 -192 -1488
WIRE -192 -1472 -288 -1472
WIRE -48 -1456 -48 -1808
WIRE -800 -1440 -800 -1456
WIRE -704 -1376 -704 -1472
WIRE -672 -1376 -704 -1376
WIRE -96 -1376 -288 -1376
WIRE -192 -1360 -192 -1472
WIRE -704 -1280 -704 -1376
WIRE -672 -1280 -704 -1280
WIRE -192 -1280 -192 -1296
WIRE -192 -1280 -288 -1280
WIRE -48 -1280 -48 -1360
WIRE -48 -1280 -192 -1280
WIRE 0 -1280 -48 -1280
WIRE 144 -1280 80 -1280
WIRE 160 -1280 144 -1280
WIRE 256 -1280 240 -1280
WIRE 288 -1280 256 -1280
WIRE 336 -1280 288 -1280
WIRE 464 -1280 336 -1280
WIRE -48 -1264 -48 -1280
WIRE 336 -1264 336 -1280
WIRE 464 -1248 464 -1280
WIRE -784 -1184 -800 -1184
WIRE -704 -1184 -704 -1280
WIRE -704 -1184 -720 -1184
WIRE -672 -1184 -704 -1184
WIRE -96 -1184 -288 -1184
WIRE 336 -1184 336 -1200
WIRE -48 -1152 -48 -1168
WIRE -864 -1088 -880 -1088
WIRE -784 -1088 -800 -1088
WIRE -672 -1088 -704 -1088
WIRE 144 -1088 144 -1280
WIRE 144 -1088 -288 -1088
WIRE 288 -1024 288 -1280
WIRE -864 -992 -880 -992
WIRE -784 -992 -800 -992
WIRE -672 -992 -704 -992
WIRE 256 -992 256 -1280
WIRE 256 -992 -288 -992
WIRE -864 -896 -880 -896
WIRE -784 -896 -800 -896
WIRE -672 -896 -704 -896
WIRE 288 -896 288 -944
WIRE 288 -896 -288 -896
WIRE 304 -896 288 -896
WIRE 400 -896 384 -896
WIRE 464 -880 464 -1184
WIRE -752 -800 -768 -800
WIRE -672 -800 -688 -800
WIRE 416 -800 -288 -800
WIRE -240 -784 -240 -1568
WIRE 464 -768 464 -784
WIRE -944 -704 -960 -704
WIRE -672 -704 -864 -704
WIRE -240 -704 -288 -704
WIRE -544 -624 -544 -640
WIRE -416 -624 -416 -640
WIRE -544 -528 -544 -544
FLAG -416 -624 0
FLAG -544 -528 0
FLAG -960 -704 0
FLAG -768 -800 0
FLAG -880 -896 0
FLAG -880 -992 0
FLAG -880 -1088 0
FLAG -800 -1184 0
FLAG -912 -1696 0
FLAG -800 -1440 0
FLAG 48 -1808 0
FLAG -192 -1664 0
FLAG -48 -1152 0
FLAG 400 -896 0
FLAG 336 -1184 0
FLAG 464 -768 0
FLAG -912 -1808 IN
FLAG 464 -1280 OUT
FLAG -288 -1680 0
SYMBOL PowerProducts\\LT3763 -480 -1136 R0
SYMATTR InstName U1
SYMBOL res -560 -640 R0
SYMATTR InstName R1
SYMATTR Value 82.5K
SYMBOL voltage -848 -704 R90
WINDOW 3 32 56 VTop 2
WINDOW 123 74 56 VTop 2
WINDOW 39 53 56 VTop 2
WINDOW 0 -32 56 VBottom 2
SYMATTR Value PULSE(0 5 20u 10n 10n 30u 50u)
SYMATTR InstName V1
SYMBOL cap -688 -816 R90
WINDOW 0 0 32 VBottom 2
WINDOW 3 32 32 VTop 2
SYMATTR InstName C1
SYMATTR Value .01µ
SYMBOL res -688 -1008 R90
WINDOW 0 0 56 VBottom 2
WINDOW 3 32 56 VTop 2
SYMATTR InstName R2
SYMATTR Value 50
SYMBOL cap -800 -1008 R90
WINDOW 0 0 32 VBottom 2
WINDOW 3 32 32 VTop 2
SYMATTR InstName C2
SYMATTR Value 1n
SYMBOL res -688 -1104 R90
WINDOW 0 0 56 VBottom 2
WINDOW 3 32 56 VTop 2
SYMATTR InstName R3
SYMATTR Value 50
SYMBOL cap -800 -1104 R90
WINDOW 0 0 32 VBottom 2
WINDOW 3 32 32 VTop 2
SYMATTR InstName C3
SYMATTR Value 1n
SYMBOL cap -720 -1200 R90
WINDOW 0 0 32 VBottom 2
WINDOW 3 32 32 VTop 2
SYMATTR InstName C4
SYMATTR Value 2.2µ
SYMBOL voltage -912 -1808 R0
WINDOW 123 24 138 Left 2
WINDOW 39 24 117 Left 2
SYMATTR Value 24
SYMATTR InstName V2
SYMBOL res -576 -1792 R270
WINDOW 0 32 56 VTop 2
WINDOW 3 0 56 VBottom 2
SYMATTR InstName R4
SYMATTR Value 2.5m
SYMBOL res -576 -1808 M0
WINDOW 0 37 48 Left 2
SYMATTR InstName R5
SYMATTR Value 1K
SYMBOL res -480 -1808 R0
SYMATTR InstName R6
SYMATTR Value 1K
SYMBOL cap -560 -1664 R270
WINDOW 0 32 32 VTop 2
WINDOW 3 0 32 VBottom 2
SYMATTR InstName C5
SYMATTR Value 1µ
SYMBOL res -816 -1696 R0
SYMATTR InstName R7
SYMATTR Value 84.5K
SYMBOL res -816 -1552 R0
SYMATTR InstName R8
SYMATTR Value 15.4K
SYMBOL cap -32 -1792 R270
WINDOW 0 32 32 VTop 2
WINDOW 3 0 32 VBottom 2
SYMATTR InstName C6
SYMATTR Value 4.7µ
SYMBOL cap -208 -1584 M180
WINDOW 0 24 56 Left 2
WINDOW 3 24 8 Left 2
SYMATTR InstName C7
SYMATTR Value 4.7µ
SYMBOL schottky -208 -1552 R0
SYMATTR InstName D1
SYMATTR Value 1N5819
SYMATTR Description Diode
SYMATTR Type diode
SYMBOL cap -208 -1360 R0
SYMATTR InstName C8
SYMATTR Value .22µ
SYMBOL nmos -96 -1456 R0
SYMATTR InstName Q1
SYMATTR Value RJK0305DPB
SYMBOL nmos -96 -1264 R0
SYMATTR InstName Q2
SYMATTR Value RJK0301DPB
SYMBOL res 144 -1264 R270
WINDOW 0 32 56 VTop 2
WINDOW 3 0 56 VBottom 2
SYMATTR InstName R9
SYMATTR Value 2.5m
SYMBOL res 272 -1040 R0
SYMATTR InstName R10
SYMATTR Value 47.5K
SYMBOL res 288 -880 R270
WINDOW 0 32 56 VTop 2
WINDOW 3 0 56 VBottom 2
SYMATTR InstName R11
SYMATTR Value 12.1K
SYMBOL LED 448 -1248 R0
SYMATTR InstName D2
SYMATTR Value PT-121-B
SYMATTR Description Diode
SYMATTR Type diode
SYMBOL nmos 416 -880 R0
SYMATTR InstName Q3
SYMATTR Value IRFH6200
SYMBOL ind -16 -1264 R270
WINDOW 0 41 58 VTop 2
WINDOW 3 -1 56 VBottom 2
SYMATTR InstName L1
SYMATTR Value 1µ
SYMBOL res -256 -800 R0
SYMATTR InstName R12
SYMATTR Value 47.5K
SYMBOL cap -800 -912 R90
WINDOW 0 0 32 VBottom 2
WINDOW 3 32 32 VTop 2
SYMATTR InstName C9
SYMATTR Value 4.7n
SYMBOL res -688 -912 R90
WINDOW 0 0 56 VBottom 2
WINDOW 3 32 56 VTop 2
SYMATTR InstName R13
SYMATTR Value 47.5K
SYMBOL cap 320 -1264 R0
WINDOW 3 35 31 Left 2
WINDOW 123 26 54 Left 2
SYMATTR Value 220µ
SYMATTR Value2 x2
SYMATTR InstName C10
SYMATTR SpiceLine Rser=1m
SYMBOL cap -368 -1664 R270
WINDOW 0 32 32 VTop 2
WINDOW 3 0 32 VBottom 2
SYMATTR InstName C11
SYMATTR Value 1µ
TEXT 208 -752 Left 2 !.tran 6m startup
TEXT -504 -1864 Bottom 2 ;LT3763 - 60V High Current Step-Down LED Driver Controller\n20A, Pulse Width Modulated, Single LED Driver\nInput: 10V to 30V    Outputs: 6V LED @ 20A   Fsw = 500kHz
TEXT -1072 -520 Left 2 ;Notes:\n  If the simulation model is not found please update with the "Sync Release" command from the "Tools" menu.\n  It remains the customer's responsibility to verify proper and reliable operation in the actual application.\n  Component substitution and printed circuit board layout may significantly affect circuit performance or reliability.\n  Contact your local sales representative for assistance. This circuit is distributed to customers only for use with LTC parts.\n  Copyright © 2013 Linear Technology Inc. All rights reserved.
