Version 4
SHEET 1 1988 1332
WIRE -320 -112 -416 -112
WIRE -224 -112 -320 -112
WIRE 240 -112 -224 -112
WIRE 464 -112 240 -112
WIRE 640 -112 464 -112
WIRE 768 -112 640 -112
WIRE 1120 -112 768 -112
WIRE -416 -96 -416 -112
WIRE -320 -96 -320 -112
WIRE -224 -96 -224 -112
WIRE 640 -96 640 -112
WIRE 1120 -96 1120 -112
WIRE 432 -80 -80 -80
WIRE 240 -64 240 -112
WIRE -416 0 -416 -16
WIRE -320 0 -320 -32
WIRE -224 0 -224 -16
WIRE 64 0 -224 0
WIRE 432 0 432 -80
WIRE 432 0 416 0
WIRE 1120 0 1120 -16
WIRE 1120 0 496 0
WIRE -224 16 -224 0
WIRE 1120 16 1120 0
WIRE 640 32 640 -16
WIRE 1072 32 640 32
WIRE 768 48 768 -112
WIRE 880 48 768 48
WIRE 992 48 880 48
WIRE -80 64 -80 -80
WIRE -48 64 -80 64
WIRE 64 64 32 64
WIRE 560 64 416 64
WIRE 640 64 640 32
WIRE 768 64 768 48
WIRE 880 64 880 48
WIRE 992 64 992 48
WIRE -80 96 -80 64
WIRE -224 112 -224 96
WIRE 576 112 528 112
WIRE 64 128 48 128
WIRE 432 128 416 128
WIRE 1120 128 1120 112
WIRE 1280 128 1120 128
WIRE 768 160 768 144
WIRE -80 176 -80 160
WIRE 48 192 48 128
WIRE 64 192 48 192
WIRE 1280 192 1120 192
WIRE 880 208 880 144
WIRE 880 208 832 208
WIRE 896 208 880 208
WIRE 992 208 992 128
WIRE 992 208 976 208
WIRE 1120 208 1120 192
WIRE 1120 208 992 208
WIRE 1120 224 1120 208
WIRE -112 256 -128 256
WIRE -32 256 -48 256
WIRE 64 256 48 256
WIRE 768 256 416 256
WIRE -192 320 -208 320
WIRE 64 320 -128 320
WIRE 464 320 464 -112
WIRE 464 320 416 320
WIRE 880 320 464 320
WIRE 960 320 880 320
WIRE 1120 320 1120 304
WIRE 1120 320 1024 320
WIRE 640 336 640 160
WIRE 768 336 768 256
WIRE 880 352 880 320
WIRE -64 384 -80 384
WIRE 64 384 16 384
WIRE 496 384 496 0
WIRE 496 384 416 384
WIRE 1120 384 1120 320
WIRE 640 432 640 416
WIRE 768 432 768 416
WIRE 880 432 880 416
WIRE -208 448 -224 448
WIRE 64 448 -128 448
WIRE 528 448 528 112
WIRE 528 448 416 448
WIRE 560 464 560 64
WIRE 1072 464 560 464
WIRE 432 512 432 128
WIRE 1120 512 1120 480
WIRE 1120 512 432 512
WIRE 240 528 240 512
WIRE 1120 528 1120 512
WIRE 1120 624 1120 608
FLAG -80 176 0
FLAG -416 0 0
FLAG -224 112 0
FLAG -128 256 0
FLAG -208 320 0
FLAG -80 384 0
FLAG 240 528 0
FLAG -224 448 0
FLAG -416 -112 IN
FLAG -320 0 0
FLAG 640 432 0
FLAG 1120 624 0
FLAG 880 432 0
FLAG 768 432 0
SYMBOL cap -96 96 R0
SYMATTR InstName C1
SYMATTR Value 4.7µ
SYMBOL ind 1104 208 R0
SYMATTR InstName L1
SYMATTR Value 33µ
SYMATTR SpiceLine Rpar=2K
SYMBOL voltage -416 -112 R0
WINDOW 3 27 90 Left 2
WINDOW 123 0 0 Left 2
WINDOW 39 0 0 Left 2
SYMATTR Value 50
SYMATTR InstName V1
SYMBOL res -240 -112 R0
SYMATTR InstName R1
SYMATTR Value 1Meg
SYMBOL res -240 0 R0
SYMATTR InstName R2
SYMATTR Value 61.9K
SYMBOL cap -48 240 R90
WINDOW 0 0 32 VBottom 2
WINDOW 3 29 32 VTop 2
WINDOW 39 51 32 VTop 2
SYMATTR InstName C2
SYMATTR Value .001µ
SYMBOL nmos 1072 384 R0
WINDOW 0 59 24 Left 2
WINDOW 3 59 63 Left 2
SYMATTR InstName Q1
SYMATTR Value Si4982DY
SYMBOL LED 1264 128 R0
WINDOW 3 79 30 Left 2
WINDOW 123 28 69 Left 2
SYMATTR Value LXK2-PW14
SYMATTR Value2 N=5
SYMATTR InstName D1
SYMATTR Description Diode
SYMATTR Type diode
SYMBOL cap -128 304 R90
WINDOW 0 0 32 VBottom 2
WINDOW 3 32 32 VTop 2
SYMATTR InstName C3
SYMATTR Value .01µ
SYMBOL res 32 368 R90
WINDOW 0 0 56 VBottom 2
WINDOW 3 32 56 VTop 2
SYMATTR InstName R3
SYMATTR Value 28.7K
SYMBOL voltage -112 448 R90
WINDOW 0 -32 56 VBottom 2
WINDOW 3 32 56 VTop 2
WINDOW 123 0 0 Left 2
WINDOW 39 0 0 Left 2
SYMATTR InstName V2
SYMATTR Value PULSE(3.3 0 2.5m 1u 1u 125u 250u)
SYMBOL PowerProducts\\LT3756-2 240 224 R0
SYMATTR InstName U1
SYMBOL res -64 80 R270
WINDOW 0 32 56 VTop 2
WINDOW 3 0 56 VBottom 2
SYMATTR InstName R4
SYMATTR Value 100K
SYMBOL cap -336 -96 R0
WINDOW 3 39 34 Left 2
WINDOW 39 23 61 Left 2
SYMATTR Value 1µ
SYMATTR SpiceLine x2
SYMATTR InstName C4
SYMBOL res 624 -112 R0
SYMATTR InstName R5
SYMATTR Value 1.5K
SYMBOL npn 576 64 R0
SYMATTR InstName Q2
SYMATTR Value 2N3904
SYMBOL res 624 320 R0
SYMATTR InstName R6
SYMATTR Value 1K
SYMBOL pmos 1072 112 M180
WINDOW 0 56 68 Left 2
WINDOW 3 54 36 Left 2
SYMATTR InstName Q3
SYMATTR Value Si4835DY
SYMBOL res 1104 -112 R0
SYMATTR InstName R7
SYMATTR Value .1
SYMBOL res 64 240 R90
WINDOW 0 0 56 VBottom 2
WINDOW 3 32 56 VTop 2
SYMATTR InstName R8
SYMATTR Value 47K
SYMBOL res 1104 512 R0
SYMATTR InstName R9
SYMATTR Value 33m
SYMBOL pnp 832 256 R180
WINDOW 0 63 70 Left 2
WINDOW 3 63 30 Left 2
SYMATTR InstName Q4
SYMATTR Value 2N3906
SYMBOL res 880 192 M90
WINDOW 0 0 56 VBottom 2
WINDOW 3 32 56 VTop 2
SYMATTR InstName R10
SYMATTR Value 200K
SYMBOL schottky 1024 304 R90
WINDOW 0 0 32 VBottom 2
WINDOW 3 32 32 VTop 2
SYMATTR InstName D2
SYMATTR Value MBRS1100
SYMATTR Description Diode
SYMATTR Type diode
SYMBOL cap 864 352 R0
SYMATTR InstName C5
SYMATTR Value 4.7µ
SYMATTR SpiceLine Rser=.003
SYMBOL res 752 320 R0
SYMATTR InstName R11
SYMATTR Value 20K
SYMBOL res 864 48 R0
SYMATTR InstName R12
SYMATTR Value 200K
SYMBOL res 752 48 R0
SYMATTR InstName R13
SYMATTR Value 200K
SYMBOL cap 976 128 M180
WINDOW 0 24 56 Left 2
WINDOW 3 37 29 Left 2
WINDOW 40 27 1 Left 2
SYMATTR InstName C6
SYMATTR Value 4.7µ
SYMATTR SpiceLine2 x5
SYMATTR SpiceLine Rser=.003
TEXT 896 544 Left 2 !.tran 5m startup
TEXT -400 552 Left 2 ;Note:\n  If the simulation model is not found please update with the "Sync Release" command from the "Tools" menu.\n  It remains the customer's responsibility to verify proper and reliable operation in the actual application.\n  Component substitution and printed circuit board layout may significantly affect circuit performance or reliability.\n  Contact your local sales representative for assistance. This circuit is distributed to customers only for use with LTC parts.\n  Copyright © 2012 Linear Technology Inc. All rights reserved.
TEXT 360 -128 Bottom 2 ;LT3756-2 - 100Vin, 100Vout LED Controller\nBuck Mode 1A LED Driver with High Dimming Ratio and Open LED Reporting\nInput: 24V to 80V     Output: 1A through 5 White LEDS
