Version 4
SHEET 1 2292 880
WIRE -368 -208 -480 -208
WIRE -256 -208 -368 -208
WIRE -160 -208 -256 -208
WIRE 0 -208 -160 -208
WIRE 192 -208 0 -208
WIRE 656 -208 192 -208
WIRE -480 -192 -480 -208
WIRE -368 -192 -368 -208
WIRE -256 -192 -256 -208
WIRE 0 -192 0 -208
WIRE 480 -192 320 -192
WIRE 592 -192 480 -192
WIRE 480 -176 480 -192
WIRE 592 -176 592 -192
WIRE 192 -160 192 -208
WIRE 320 -160 320 -192
WIRE -480 -96 -480 -112
WIRE -368 -96 -368 -128
WIRE -256 -96 -256 -128
WIRE -112 -96 -128 -96
WIRE 0 -96 0 -112
WIRE 0 -96 -32 -96
WIRE 80 -96 0 -96
WIRE 480 -96 480 -112
WIRE 480 -96 432 -96
WIRE 592 -96 592 -112
WIRE 656 -80 656 -208
WIRE -432 0 -448 0
WIRE -336 0 -368 0
WIRE 80 0 -336 0
WIRE 608 0 432 0
WIRE 480 16 480 -96
WIRE -336 48 -336 0
WIRE -160 80 -160 -208
WIRE -16 96 -32 96
WIRE 80 96 64 96
WIRE 480 96 480 80
WIRE 480 96 432 96
WIRE 656 96 656 16
WIRE 656 96 480 96
WIRE 704 96 656 96
WIRE 816 96 784 96
WIRE 848 96 816 96
WIRE 944 96 928 96
WIRE 1024 96 944 96
WIRE 1104 96 1024 96
WIRE 1200 96 1104 96
WIRE 656 112 656 96
WIRE 1104 112 1104 96
WIRE 1200 112 1200 96
WIRE 816 144 816 96
WIRE 944 144 944 96
WIRE -272 192 -288 192
WIRE -160 192 -160 160
WIRE -160 192 -192 192
WIRE 80 192 -160 192
WIRE 608 192 432 192
WIRE 1104 208 1104 176
WIRE 1200 208 1200 192
WIRE 656 224 656 208
WIRE 1024 272 1024 96
WIRE -336 288 -336 128
WIRE 80 288 -336 288
WIRE 496 288 432 288
WIRE 816 288 816 224
WIRE 816 288 496 288
WIRE -336 304 -336 288
WIRE 496 304 496 288
WIRE 0 384 -16 384
WIRE 80 384 64 384
WIRE 496 384 496 368
WIRE 496 384 432 384
WIRE 944 384 944 224
WIRE 944 384 496 384
WIRE -336 400 -336 384
WIRE -80 480 -96 480
WIRE 80 480 64 480
WIRE 1024 480 1024 352
WIRE 1024 480 432 480
WIRE 1024 496 1024 480
WIRE 256 560 256 544
WIRE 1024 592 1024 576
FLAG -32 96 0
FLAG -448 0 0
FLAG -96 480 0
FLAG -16 384 0
FLAG -368 -96 0
FLAG -256 -96 0
FLAG 1104 208 0
FLAG 256 560 0
FLAG 1024 592 0
FLAG 656 224 0
FLAG 592 -96 0
FLAG -336 400 0
FLAG 1200 96 OUT
FLAG -480 -208 IN
FLAG 1200 208 0
FLAG -128 -96 0
FLAG -480 -96 0
FLAG -288 192 0
SYMBOL PowerProducts\\LT3741 256 192 R0
SYMATTR InstName U1
SYMBOL ind 688 112 R270
WINDOW 0 32 56 VTop 0
WINDOW 3 5 56 VBottom 0
SYMATTR InstName L1
SYMATTR Value 8.2µ
SYMBOL res 832 112 R270
WINDOW 0 32 56 VTop 0
WINDOW 3 0 56 VBottom 0
SYMATTR InstName R1
SYMATTR Value 10m
SYMBOL cap 1088 112 R0
SYMATTR InstName C1
SYMATTR Value 100µ
SYMBOL res 80 80 R90
WINDOW 0 0 56 VBottom 0
WINDOW 3 32 56 VTop 0
SYMATTR InstName R2
SYMATTR Value 82.5K
SYMBOL cap -368 -16 R90
WINDOW 0 0 32 VBottom 0
WINDOW 3 32 32 VTop 0
SYMATTR InstName C2
SYMATTR Value .001µ
SYMBOL res 80 464 R90
WINDOW 0 0 56 VBottom 0
WINDOW 3 32 56 VTop 0
SYMATTR InstName R3
SYMATTR Value 30.1K
SYMBOL cap -16 464 R90
WINDOW 0 0 32 VBottom 0
WINDOW 3 32 32 VTop 0
SYMATTR InstName C3
SYMATTR Value 3900p
SYMBOL cap 64 368 R90
WINDOW 0 0 32 VBottom 0
WINDOW 3 32 32 VTop 0
SYMATTR InstName C4
SYMATTR Value .001µ
SYMBOL cap -384 -192 R0
SYMATTR InstName C5
SYMATTR Value 22µ
SYMBOL cap -272 -192 R0
SYMATTR InstName C6
SYMATTR Value 1µ
SYMBOL res 1008 256 R0
SYMATTR InstName R4
SYMATTR Value 187K
SYMBOL res 1008 480 R0
SYMATTR InstName R5
SYMATTR Value 12.1K
SYMBOL res 800 128 R0
SYMATTR InstName R6
SYMATTR Value 10
SYMBOL res 928 128 R0
SYMATTR InstName R7
SYMATTR Value 10
SYMBOL cap 480 304 R0
SYMATTR InstName C7
SYMATTR Value .0022µ
SYMBOL nmos 608 -80 R0
SYMATTR InstName Q1
SYMATTR Value Si7884DP
SYMBOL nmos 608 112 R0
SYMATTR InstName Q2
SYMATTR Value Si7884DP
SYMBOL cap 576 -176 R0
SYMATTR InstName C8
SYMATTR Value 4.7µ
SYMBOL schottky 464 -176 R0
SYMATTR InstName D1
SYMATTR Value BAT54
SYMBOL cap 464 16 R0
SYMATTR InstName C9
SYMATTR Value 100n
SYMBOL res -352 32 R0
SYMATTR InstName R8
SYMATTR Value 45.3K
SYMBOL res -352 288 R0
SYMATTR InstName R9
SYMATTR Value 470K
SYMBOL voltage -480 -208 R0
WINDOW 123 0 0 Left 0
WINDOW 39 0 0 Left 0
SYMATTR InstName V3
SYMATTR Value 30
SYMBOL res 1184 96 R0
SYMATTR InstName Rload
SYMATTR Value 15
SYMBOL res -16 -112 R90
WINDOW 0 0 56 VBottom 0
WINDOW 3 32 56 VTop 0
SYMATTR InstName R10
SYMATTR Value 3.6K
SYMBOL res -16 -208 R0
SYMATTR InstName R11
SYMATTR Value 18K
SYMBOL res -176 176 R90
WINDOW 0 0 56 VBottom 0
WINDOW 3 32 56 VTop 0
SYMATTR InstName R12
SYMATTR Value 4.3K
SYMBOL res -176 64 R0
SYMATTR InstName R13
SYMATTR Value 82K
TEXT 696 544 Left 0 !.tran 1.5m startup
TEXT 352 -240 Bottom 0 ;LT3741 - High Power, Constant Current, Constant Voltage, Step-Down Controller\nInput 30V,  Output 20V @ 1.3A
TEXT -288 576 Left 0 ;Notes:\n  If the simulation model is not found please update with the "Sync Release" command from the "Tools" menu.\n  It remains the customer's responsibility to verify proper and reliable operation in the actual application.\n  Component substitution and printed circuit board layout may significantly affect circuit performance or reliability.\n  Contact your local sales representative for assistance. This circuit is distributed to customers only for use with LTC parts.\n  Copyright © 2010 Linear Technology Inc. All rights reserved.
