Version 4
SHEET 1 3164 1300
WIRE 368 -512 -304 -512
WIRE -400 -464 -512 -464
WIRE -192 -464 -400 -464
WIRE -112 -464 -192 -464
WIRE -16 -464 -32 -464
WIRE 80 -464 -16 -464
WIRE 608 -464 80 -464
WIRE 640 -464 608 -464
WIRE 720 -464 704 -464
WIRE -512 -448 -512 -464
WIRE -192 -448 -192 -464
WIRE 1360 -400 176 -400
WIRE -400 -368 -400 -464
WIRE -192 -368 -192 -384
WIRE -112 -368 -112 -464
WIRE -96 -368 -112 -368
WIRE -16 -368 -16 -384
WIRE -16 -368 -32 -368
WIRE 1248 -368 272 -368
WIRE -512 -352 -512 -368
WIRE 368 -336 368 -512
WIRE 704 -336 368 -336
WIRE 864 -336 704 -336
WIRE 1008 -336 864 -336
WIRE -112 -320 -112 -368
WIRE -16 -320 -16 -368
WIRE 80 -320 80 -464
WIRE 176 -320 176 -400
WIRE 272 -320 272 -368
WIRE 368 -320 368 -336
WIRE 1008 -320 1008 -336
WIRE -400 -256 -400 -288
WIRE -400 -256 -512 -256
WIRE -176 -256 -400 -256
WIRE 864 -256 864 -272
WIRE 864 -256 432 -256
WIRE 704 -240 704 -336
WIRE 1008 -240 1008 -256
WIRE -400 -224 -400 -256
WIRE -512 -176 -512 -256
WIRE -176 -160 -256 -160
WIRE 704 -160 704 -176
WIRE 704 -160 432 -160
WIRE 1168 -160 960 -160
WIRE 1248 -160 1248 -368
WIRE 1248 -160 1168 -160
WIRE 1264 -160 1248 -160
WIRE 1360 -160 1360 -400
WIRE 1360 -160 1344 -160
WIRE 608 -144 608 -464
WIRE 960 -144 960 -160
WIRE 1168 -144 1168 -160
WIRE -400 -112 -400 -144
WIRE 704 -112 704 -160
WIRE 864 -112 864 -256
WIRE -512 -64 -512 -96
WIRE -256 -64 -256 -160
WIRE -256 -64 -512 -64
WIRE -176 -64 -208 -64
WIRE 560 -64 432 -64
WIRE 1088 -64 1008 -64
WIRE 1168 -64 1168 -80
WIRE -512 -32 -512 -64
WIRE -176 32 -208 32
WIRE 608 32 608 -48
WIRE 608 32 432 32
WIRE 704 32 704 -48
WIRE 704 32 608 32
WIRE 752 32 704 32
WIRE 864 32 864 -48
WIRE 864 32 832 32
WIRE 960 32 960 -48
WIRE 960 32 864 32
WIRE 1056 32 960 32
WIRE 608 48 608 32
WIRE 960 48 960 32
WIRE -512 64 -512 48
WIRE -176 128 -208 128
WIRE 560 128 432 128
WIRE 1024 128 1008 128
WIRE -304 224 -304 -512
WIRE -272 224 -304 224
WIRE -176 224 -192 224
WIRE 608 224 608 144
WIRE 608 224 432 224
WIRE 768 224 608 224
WIRE 960 224 960 144
WIRE 960 224 768 224
WIRE 768 240 768 224
WIRE 1360 256 1360 -160
WIRE -304 320 -304 224
WIRE -272 320 -304 320
WIRE -176 320 -192 320
WIRE 768 320 432 320
WIRE 768 336 768 320
WIRE 768 336 528 336
WIRE 768 352 768 336
WIRE 1248 384 1248 -160
WIRE -272 416 -304 416
WIRE -176 416 -192 416
WIRE 528 416 528 336
WIRE 528 416 432 416
WIRE 1248 480 1248 464
WIRE 1248 480 1200 480
WIRE 1248 496 1248 480
WIRE -288 512 -304 512
WIRE -208 512 -224 512
WIRE -176 512 -208 512
WIRE 1024 512 1024 128
WIRE 1024 512 432 512
WIRE 1248 592 1248 576
WIRE -480 608 -496 608
WIRE -176 608 -400 608
WIRE 1056 608 1056 32
WIRE 1056 608 432 608
WIRE -208 704 -208 512
WIRE -176 704 -208 704
WIRE 1088 704 1088 -64
WIRE 1088 704 432 704
WIRE 1360 720 1360 320
WIRE -112 784 -112 768
WIRE -16 784 -16 768
WIRE 80 784 80 768
WIRE 176 784 176 768
WIRE 368 784 368 768
WIRE 1200 784 1200 480
WIRE 1200 784 368 784
WIRE 272 800 272 768
WIRE 1312 800 272 800
WIRE 1360 832 1360 816
WIRE -16 864 -16 848
WIRE 176 864 176 848
FLAG -112 784 0
FLAG -16 864 0
FLAG 80 784 0
FLAG 176 864 0
FLAG -512 -352 0
FLAG 1008 -240 0
FLAG -512 64 0
FLAG -304 416 0
FLAG -304 512 0
FLAG 768 352 0
FLAG 1248 592 0
FLAG 1360 832 0
FLAG 1168 -64 0
FLAG 720 -464 0
FLAG -192 -368 0
FLAG -496 608 0
FLAG -512 -464 IN
FLAG 1360 -160 OUT
FLAG -400 -112 0
SYMBOL PowerProducts\\LT3791 128 224 R0
SYMATTR InstName U1
SYMBOL cap -32 784 R0
SYMATTR InstName C1
SYMATTR Value 10n
SYMATTR SpiceLine ""
SYMBOL cap 160 784 R0
WINDOW 39 24 77 Left 2
SYMATTR SpiceLine ""
SYMATTR Value 22n
SYMATTR InstName C2
SYMBOL voltage -512 -464 R0
WINDOW 123 0 0 Left 2
WINDOW 39 24 44 Left 2
SYMATTR Value2 ""
SYMATTR SpiceLine ""
SYMATTR InstName V1
SYMATTR Value 24
SYMBOL res -128 -448 R270
WINDOW 0 32 56 VTop 2
WINDOW 3 0 56 VBottom 2
SYMATTR InstName R1
SYMATTR Value 3m
SYMBOL res -416 -384 R0
WINDOW 0 38 40 Left 2
SYMATTR InstName R2
SYMATTR Value 499K
SYMATTR SpiceLine ""
SYMBOL res -32 -480 R0
SYMATTR InstName R4
SYMATTR Value 50
SYMBOL cap -96 -352 R270
WINDOW 0 32 32 VTop 2
WINDOW 3 0 32 VBottom 2
SYMATTR InstName C3
SYMATTR Value 470n
SYMBOL cap 992 -320 R0
SYMATTR InstName C4
SYMATTR Value 4.7µ
SYMBOL res -528 -192 R0
SYMATTR InstName R5
SYMATTR Value 499K
SYMATTR SpiceLine ""
SYMBOL res -528 -48 R0
SYMATTR InstName R6
SYMATTR Value 27.4K
SYMATTR SpiceLine ""
SYMBOL res -176 400 R90
WINDOW 0 0 56 VBottom 2
WINDOW 3 32 56 VTop 2
SYMATTR InstName R7
SYMATTR Value 86.6K
SYMBOL cap -224 496 R90
WINDOW 0 0 32 VBottom 2
WINDOW 3 32 32 VTop 2
SYMATTR InstName C5
SYMATTR Value .1µ
SYMBOL nmos 560 -144 R0
WINDOW 0 -2 20 Right 2
WINDOW 3 43 108 Right 2
SYMATTR InstName Q1
SYMATTR Value RJK0651DPB
SYMBOL nmos 560 48 R0
WINDOW 0 56 29 Left 2
WINDOW 3 59 77 Left 2
SYMATTR InstName Q2
SYMATTR Value RJK0651DPB
SYMBOL ind 736 48 R270
WINDOW 0 32 56 VTop 2
WINDOW 3 5 56 VBottom 2
SYMATTR InstName L1
SYMATTR Value 10µ
SYMATTR SpiceLine Rser=10m Rpar=5K
SYMBOL cap 688 -112 R0
SYMATTR InstName C6
SYMATTR Value .1µ
SYMBOL cap 848 -112 R0
SYMATTR InstName C7
SYMATTR Value .1µ
SYMBOL res 752 224 R0
SYMATTR InstName R8
SYMATTR Value 4m
SYMBOL res 1232 368 R0
SYMATTR InstName R9
SYMATTR Value 1Meg
SYMBOL res 1232 480 R0
SYMATTR InstName R10
SYMATTR Value 34.2K
SYMBOL res 1248 -144 R270
WINDOW 0 32 56 VTop 2
WINDOW 3 0 56 VBottom 2
SYMATTR InstName R11
SYMATTR Value 33m
SYMBOL LED 1344 256 R0
WINDOW 123 22 109 Left 2
WINDOW 3 24 81 Left 2
SYMATTR Value2 N=9
SYMATTR Value LUW-W5AP
SYMATTR InstName D1
SYMATTR Description Diode
SYMATTR Type diode
SYMBOL cap 1152 -144 R0
WINDOW 123 29 64 Left 2
WINDOW 3 36 35 Left 2
SYMATTR Value2 x5
SYMATTR Value 4.7µ
SYMATTR InstName C8
SYMATTR SpiceLine Rser=.010
SYMBOL res -288 336 R270
WINDOW 0 32 56 VTop 2
WINDOW 3 0 56 VBottom 2
SYMATTR InstName R12
SYMATTR Value 200K
SYMBOL res -288 240 R270
WINDOW 0 32 56 VTop 2
WINDOW 3 0 56 VBottom 2
SYMATTR InstName R13
SYMATTR Value 200K
SYMBOL cap 640 -448 R270
WINDOW 0 32 32 VTop 2
WINDOW 3 1 33 VBottom 2
WINDOW 123 -47 31 VTop 2
SYMATTR InstName C9
SYMATTR Value 2.2µ
SYMATTR Value2 x4
SYMATTR SpiceLine Rser=.002
SYMBOL cap -208 -448 R0
SYMATTR InstName C10
SYMATTR Value 1µ
SYMBOL voltage -384 608 R90
WINDOW 123 74 56 VTop 2
WINDOW 39 53 56 VTop 2
WINDOW 0 -32 56 VBottom 2
WINDOW 3 32 56 VTop 2
SYMATTR Value2 ""
SYMATTR SpiceLine ""
SYMATTR InstName V2
SYMATTR Value PWL(2.5m 2 3m 0 3.5m 0 4m 2)
SYMBOL nmos 1008 48 M0
SYMATTR InstName Q3
SYMATTR Value RJK0451DPB
SYMBOL nmos 1008 -144 M0
WINDOW 0 -5 17 Right 2
WINDOW 3 -1 57 Right 2
SYMATTR InstName Q4
SYMATTR Value RJK0451DPB
SYMBOL nmos 1312 720 R0
SYMATTR InstName Q5
SYMATTR Value Si2318CDS
SYMBOL diode 848 -336 R0
WINDOW 0 37 19 Left 2
SYMATTR InstName D2
SYMATTR Value BAT46WJ
SYMBOL diode 688 -240 R0
SYMATTR InstName D3
SYMATTR Value BAT46WJ
SYMBOL res -416 -240 R0
SYMATTR InstName R3
SYMATTR Value 43.2K
SYMATTR SpiceLine ""
TEXT 1072 856 Left 2 !.tran 5m startup
TEXT -312 872 Left 2 ;Note:\n  If the simulation model is not found please update with the "Sync Release" command from the "Tools" menu.\n  It remains the customer's responsibility to verify proper and reliable operation in the actual application.\n  Component substitution and printed circuit board layout may significantly affect circuit performance or reliability.\n  Contact your local sales representative for assistance. This circuit is distributed to customers only for use with LTC parts.\n  Copyright © 2012 Linear Technology Inc. All rights reserved.
TEXT 400 -520 Bottom 2 ;LT3791 - 60V 4-Switch Synchronous Buck-Boost LED Driver Controller\n98.5% Efficient 100W Buck-Boost LED Driver\nInput: 15V to 58V       Output: 33.3V LED @ 3A
