Version 4
SHEET 1 1532 856
WIRE -240 -96 -336 -96
WIRE -128 -96 -240 -96
WIRE 240 -96 -128 -96
WIRE 448 -96 240 -96
WIRE 560 -96 528 -96
WIRE 592 -96 560 -96
WIRE 688 -96 656 -96
WIRE 768 -96 688 -96
WIRE 864 -96 832 -96
WIRE 912 -96 864 -96
WIRE 1008 -96 912 -96
WIRE 1088 -96 1008 -96
WIRE -336 -80 -336 -96
WIRE -240 -80 -240 -96
WIRE 688 -80 688 -96
WIRE 912 -80 912 -96
WIRE 1008 -80 1008 -96
WIRE 1088 -80 1088 -96
WIRE -128 -64 -128 -96
WIRE 416 -48 -16 -48
WIRE 240 -32 240 -96
WIRE -336 16 -336 0
WIRE -240 16 -240 -16
WIRE 688 16 688 0
WIRE 912 16 912 -16
WIRE 1008 16 1008 -16
WIRE 1088 16 1088 0
WIRE -128 32 -128 16
WIRE 80 32 -128 32
WIRE 416 32 416 -48
WIRE 416 32 400 32
WIRE 432 32 416 32
WIRE 512 32 496 32
WIRE -128 48 -128 32
WIRE -16 48 -16 -48
WIRE 80 128 -16 128
WIRE 864 128 864 -96
WIRE 864 128 400 128
WIRE -128 144 -128 128
WIRE 560 144 560 -96
WIRE 0 224 -32 224
WIRE 80 224 64 224
WIRE 512 224 400 224
WIRE 864 288 864 128
WIRE -16 320 -32 320
WIRE 80 320 64 320
WIRE 560 320 560 240
WIRE 560 320 400 320
WIRE 576 320 560 320
WIRE 672 320 656 320
WIRE -96 416 -112 416
WIRE -16 416 -32 416
WIRE 80 416 64 416
WIRE 864 416 864 368
WIRE 864 416 400 416
WIRE 864 432 864 416
WIRE 240 496 240 480
WIRE 864 528 864 512
FLAG 240 496 0
FLAG -112 416 0
FLAG -32 320 0
FLAG -32 224 0
FLAG 512 32 0
FLAG -336 16 0
FLAG -128 144 0
FLAG -336 -96 IN
FLAG 672 320 0
FLAG 688 16 0
FLAG 864 528 0
FLAG 912 16 0
FLAG 1008 16 0
FLAG 1088 16 0
FLAG 1088 -96 OUT
FLAG -240 16 0
SYMBOL LT3759 240 224 R0
SYMATTR InstName U1
SYMBOL cap -32 400 R90
WINDOW 0 0 32 VBottom 2
WINDOW 3 32 32 VTop 2
SYMATTR InstName C1
SYMATTR Value 22n
SYMBOL res 80 304 R90
WINDOW 0 0 56 VBottom 2
WINDOW 3 32 56 VTop 2
SYMATTR InstName R1
SYMATTR Value 41.2K
SYMBOL cap 64 208 R90
WINDOW 0 0 32 VBottom 2
WINDOW 3 32 32 VTop 2
SYMATTR InstName C2
SYMATTR Value .05µ
SYMBOL voltage -336 -96 R0
WINDOW 123 0 0 Left 2
WINDOW 39 0 0 Left 2
SYMATTR InstName V1
SYMATTR Value 14
SYMBOL cap 432 48 R270
WINDOW 0 32 32 VTop 2
WINDOW 3 0 32 VBottom 2
SYMATTR InstName C3
SYMATTR Value 4.7µ
SYMBOL res -144 -80 R0
SYMATTR InstName R2
SYMATTR Value 105K
SYMBOL res -144 32 R0
SYMATTR InstName R3
SYMATTR Value 118K
SYMBOL res -32 32 R0
SYMATTR InstName R4
SYMATTR Value 100K
SYMBOL ind2 432 -80 R270
WINDOW 0 32 56 VTop 2
WINDOW 3 4 56 VBottom 2
SYMATTR InstName L1
SYMATTR Value 15µ
SYMATTR Type ind
SYMATTR SpiceLine Rser=0.0247
SYMBOL ind2 672 16 M180
WINDOW 0 36 80 Left 2
WINDOW 3 36 40 Left 2
SYMATTR InstName L2
SYMATTR Value 15µ
SYMATTR Type ind
SYMATTR SpiceLine Rser=0.0247
SYMBOL nmos 512 144 R0
WINDOW 0 56 5 Left 2
WINDOW 3 60 79 Left 2
SYMATTR InstName Q1
SYMATTR Value IPB081N06L3
SYMBOL res 560 336 R270
WINDOW 0 32 56 VTop 2
WINDOW 3 0 56 VBottom 2
SYMATTR InstName R5
SYMATTR Value 5m
SYMBOL cap 592 -80 R270
WINDOW 0 32 32 VTop 2
WINDOW 3 0 32 VBottom 2
WINDOW 123 -21 32 VBottom 2
SYMATTR InstName C4
SYMATTR Value 4.7µ
SYMATTR Value2 x2
SYMATTR SpiceLine V=50 Irms=0 Rser=0.004 Lser=0 mfg="TDK" pn="C575OX7RIH475M" type="X7R"
SYMBOL schottky 768 -80 R270
WINDOW 0 32 32 VTop 2
WINDOW 3 0 32 VBottom 2
SYMATTR InstName D1
SYMATTR Value MBRS360
SYMATTR Description Diode
SYMATTR Type diode
SYMBOL res 848 272 R0
SYMATTR InstName R6
SYMATTR Value 105K
SYMBOL res 848 416 R0
SYMATTR InstName R7
SYMATTR Value 15.8K
SYMBOL polcap 896 -80 R0
WINDOW 3 36 34 Left 2
WINDOW 123 26 57 Left 2
SYMATTR Value 47µ
SYMATTR Value2 x4
SYMATTR InstName C5
SYMATTR Description Capacitor
SYMATTR Type cap
SYMATTR SpiceLine V=20 Irms=0 Rser=0.15 Lser=0 mfg="KEMET" pn="T495X476M020AS" type="Tantalum"
SYMBOL cap 992 -80 R0
SYMATTR InstName C6
SYMATTR Value 10µ
SYMATTR SpiceLine V=10 Irms=8.919 Rser=0.005 Lser=0 mfg="KEMET" pn="C1210C106K8PAC" type="X5R"
SYMBOL res 1072 -96 R0
SYMATTR InstName Rload
SYMATTR Value 6
SYMBOL res 80 400 R90
WINDOW 0 0 56 VBottom 2
WINDOW 3 32 56 VTop 2
SYMATTR InstName R8
SYMATTR Value 7.5K
SYMBOL cap -256 -80 R0
WINDOW 3 37 33 Left 2
WINDOW 123 22 60 Left 2
SYMATTR Value 4.7µ
SYMATTR Value2 x4
SYMATTR InstName C7
TEXT 632 -136 Bottom 2 !K1 L1 L2 .99
TEXT 560 496 Left 2 !.tran 5m startup
TEXT -240 544 Left 2 ;Note:\n  A smaller RUN/SS capacitors is being used to reduce simulation time. The typical value should be 0.1µF.\n  If the simulation model is not found please update with the "Sync Release" command from the "Tools" menu.\n  It remains the customer's responsibility to verify proper and reliable operation in the actual application.\n  Component substitution and printed circuit board layout may significantly affect circuit performance or reliability\n  Contact your local sales representative for assistance. This circuit is distributed to customers only for use with LTC parts\n  Copyright © 2015 Linear Technology Inc. All rights reserved.
TEXT 368 -168 Bottom 2 ;LT3759 - Wide Input Voltage Range Boost/SEPIC/Inverting Controller\n2.5V to 36V Input, 12V/1A Output SEPIC Converter (Automotive 12V Regulator)\nInput: 2.5V to 36V  Output: 12V @ 2A (0.5A for Vin < 8V)
