Version 4
SHEET 1 3016 920
WIRE 656 -336 528 -336
WIRE 816 -336 720 -336
WIRE 944 -336 816 -336
WIRE 992 -336 944 -336
WIRE 1088 -336 992 -336
WIRE 816 -320 816 -336
WIRE 992 -320 992 -336
WIRE 1088 -320 1088 -336
WIRE 528 -224 528 -336
WIRE 608 -224 528 -224
WIRE 704 -224 672 -224
WIRE 816 -224 816 -256
WIRE 816 -224 784 -224
WIRE 992 -224 992 -256
WIRE 1088 -224 1088 -240
WIRE 528 -192 528 -224
WIRE -32 -96 -320 -96
WIRE 48 -96 -32 -96
WIRE 240 -96 48 -96
WIRE 352 -96 240 -96
WIRE 528 -96 528 -128
WIRE 528 -96 432 -96
WIRE 656 -96 528 -96
WIRE 816 -96 816 -224
WIRE 816 -96 720 -96
WIRE 832 -96 816 -96
WIRE 912 -96 896 -96
WIRE -320 -80 -320 -96
WIRE -32 -80 -32 -96
WIRE 240 -32 240 -96
WIRE -320 16 -320 0
WIRE -32 16 -32 -16
WIRE 48 32 48 -96
WIRE 80 32 48 32
WIRE 416 32 400 32
WIRE 496 32 480 32
WIRE -80 128 -176 128
WIRE 80 128 0 128
WIRE 816 128 816 -96
WIRE 816 128 400 128
WIRE 528 144 528 -96
WIRE 0 224 -32 224
WIRE 80 224 64 224
WIRE 480 224 400 224
WIRE 944 304 944 -336
WIRE -16 320 -32 320
WIRE 80 320 64 320
WIRE 528 320 528 240
WIRE 528 320 400 320
WIRE 544 320 528 320
WIRE 640 320 624 320
WIRE -96 416 -128 416
WIRE 0 416 -16 416
WIRE 80 416 0 416
WIRE 944 416 944 384
WIRE 944 416 400 416
WIRE -128 432 -128 416
WIRE 0 432 0 416
WIRE 944 432 944 416
WIRE 240 496 240 480
WIRE -128 512 -128 496
WIRE 0 512 0 496
WIRE 944 528 944 512
WIRE -176 640 -176 128
WIRE 816 640 816 128
WIRE 816 640 -176 640
FLAG 240 496 0
FLAG -32 320 0
FLAG -32 224 0
FLAG 496 32 0
FLAG -320 16 0
FLAG -320 -96 IN
FLAG 640 320 0
FLAG 944 528 0
FLAG 912 -96 0
FLAG 992 -224 0
FLAG 1088 -224 0
FLAG -128 512 0
FLAG 1088 -336 OUT
FLAG 0 512 0
FLAG -32 16 0
SYMBOL PowerProducts\\LT3759 240 224 R0
SYMATTR InstName U1
SYMBOL cap -144 432 R0
WINDOW 39 24 77 Left 2
SYMATTR InstName C1
SYMATTR Value 22n
SYMBOL res 80 304 R90
WINDOW 0 0 56 VBottom 2
WINDOW 3 32 56 VTop 2
SYMATTR InstName R1
SYMATTR Value 63.4K
SYMBOL cap 64 208 R90
WINDOW 0 0 32 VBottom 2
WINDOW 3 32 32 VTop 2
SYMATTR InstName C2
SYMATTR Value .1µ
SYMBOL voltage -320 -96 R0
WINDOW 123 24 124 Left 2
SYMATTR Value2 10m 2.5 +.1m 1.6)
SYMATTR Value PWL(0 0 20u 2.5
SYMATTR InstName V1
SYMBOL cap 416 48 R270
WINDOW 0 32 32 VTop 2
WINDOW 3 0 32 VBottom 2
SYMATTR InstName C3
SYMATTR Value 4.7µ
SYMBOL res 16 112 R90
WINDOW 0 0 56 VBottom 2
WINDOW 3 32 56 VTop 2
SYMATTR InstName R2
SYMATTR Value 100K
SYMBOL ind 448 -80 M270
WINDOW 0 32 56 VTop 2
WINDOW 3 5 56 VBottom 2
SYMATTR InstName L1
SYMATTR Value 8.2µ
SYMATTR SpiceLine Ipk=5.6 Rser=0.03175 Rpar=772.44 Cpar=0 mfg="Coilcraft" pn="XAL5050-822"
SYMBOL nmos 480 144 R0
WINDOW 0 56 5 Left 2
WINDOW 3 60 79 Left 2
SYMATTR InstName Q1
SYMATTR Value Si4800DY
SYMATTR Prefix ""
SYMBOL res 528 336 R270
WINDOW 0 32 56 VTop 2
WINDOW 3 0 56 VBottom 2
SYMATTR InstName R3
SYMATTR Value 6m
SYMBOL schottky 656 -80 R270
WINDOW 0 32 32 VTop 2
WINDOW 3 0 32 VBottom 2
SYMATTR InstName D1
SYMATTR Value MBR0540
SYMATTR Description Diode
SYMATTR Type diode
SYMBOL res 928 416 R0
SYMATTR InstName R4
SYMATTR Value 10K
SYMBOL cap 832 -80 R270
WINDOW 0 32 32 VTop 2
WINDOW 3 0 32 VBottom 2
SYMATTR InstName C4
SYMATTR Value 10µ
SYMATTR SpiceLine V=50 Rser=0.003
SYMBOL cap 512 -192 R0
SYMATTR InstName C5
SYMATTR Value 10µ
SYMATTR SpiceLine V=50 Rser=0.003
SYMBOL cap 800 -320 R0
SYMATTR InstName C6
SYMATTR Value 10µ
SYMATTR SpiceLine V=50 Rser=0.003
SYMBOL cap 976 -320 R0
SYMATTR InstName C7
SYMATTR Value 10µ
SYMATTR SpiceLine V=50V Rser=0.003
SYMBOL res 800 -240 R90
WINDOW 0 0 56 VBottom 2
WINDOW 3 32 56 VTop 2
SYMATTR InstName R5
SYMATTR Value 1
SYMBOL res 0 400 R90
WINDOW 0 0 56 VBottom 2
WINDOW 3 32 56 VTop 2
SYMATTR InstName R6
SYMATTR Value 15K
SYMBOL schottky 656 -320 R270
WINDOW 0 32 32 VTop 2
WINDOW 3 0 32 VBottom 2
SYMATTR InstName D2
SYMATTR Value MBR0540
SYMATTR Description Diode
SYMATTR Type diode
SYMBOL schottky 672 -240 R90
WINDOW 0 0 32 VBottom 2
WINDOW 3 32 32 VTop 2
SYMATTR InstName D3
SYMATTR Value MBR0540
SYMATTR Description Diode
SYMATTR Type diode
SYMBOL res 928 288 R0
SYMATTR InstName R7
SYMATTR Value 290K
SYMBOL cap -16 432 R0
SYMATTR InstName C8
SYMATTR Value 120p
SYMBOL res 1072 -336 R0
SYMATTR InstName Rload
SYMATTR Value 480
SYMBOL cap -48 -80 R0
SYMATTR InstName C9
SYMATTR Value 22µ
SYMATTR SpiceLine V=25 Irms=0 Rser=0.003 Lser=0 mfg="TDK" pn="C575OX5RIE226M" type="X5R"
TEXT 848 624 Left 2 !.tran 12m startup
TEXT 96 -248 Bottom 2 ;LT3759 - Wide Input Voltage Range Boost/SEPIC/Inverting Controller\nWide Vin Boost Conveter that Works Down to 1.6V Input\nInput: 1.6V to 20V (2.5V startup)     Output: 48V@ >100mA, Fsw = 140kHz
TEXT -296 656 Left 2 ;Note:\n  A smaller SS capacitor is being used to reduce simulation time. See datasheet for typical values.\n  If the simulation model is not found please update with the "Sync Release" command from the "Tools" menu.\n  It remains the customer's responsibility to verify proper and reliable operation in the actual application.\n  Component substitution and printed circuit board layout may significantly affect circuit performance or reliability.\n  Contact your local sales representative for assistance. This circuit is distributed to customers only for use with LTC parts.\n  Copyright © 2016 Linear Technology Inc. All rights reserved.
