Version 4
SHEET 1 1296 1332
WIRE -272 -160 -384 -160
WIRE -176 -160 -272 -160
WIRE 240 -160 -176 -160
WIRE 384 -160 240 -160
WIRE 624 -160 464 -160
WIRE 656 -160 624 -160
WIRE 752 -160 720 -160
WIRE 832 -160 752 -160
WIRE 960 -160 832 -160
WIRE -384 -128 -384 -160
WIRE -272 -128 -272 -160
WIRE -176 -128 -176 -160
WIRE 832 -128 832 -160
WIRE 448 -112 -16 -112
WIRE -16 -96 -16 -112
WIRE 240 -64 240 -160
WIRE 832 -48 832 -64
WIRE -272 -32 -272 -64
WIRE -384 -16 -384 -48
WIRE 624 -16 624 -160
WIRE -176 0 -176 -48
WIRE 64 0 -176 0
WIRE 448 0 448 -112
WIRE 448 0 416 0
WIRE 464 0 448 0
WIRE 544 0 528 0
WIRE -176 16 -176 0
WIRE -16 64 -16 -16
WIRE 64 64 -16 64
WIRE 576 64 416 64
WIRE 752 64 752 -160
WIRE 960 96 960 -160
WIRE 960 96 864 96
WIRE -176 112 -176 96
WIRE 960 112 960 96
WIRE -64 128 -96 128
WIRE 64 128 16 128
WIRE 624 128 624 80
WIRE 624 128 416 128
WIRE 624 144 624 128
WIRE 752 160 752 144
WIRE 752 160 720 160
WIRE 752 176 752 160
WIRE -256 192 -320 192
WIRE -96 192 -96 128
WIRE -96 192 -176 192
WIRE 64 192 -96 192
WIRE 960 208 960 192
WIRE 960 208 896 208
WIRE 960 240 960 208
WIRE -128 256 -144 256
WIRE 64 256 -64 256
WIRE 720 256 720 160
WIRE 720 256 416 256
WIRE 752 272 752 256
WIRE -16 320 -32 320
WIRE 64 320 48 320
WIRE 864 320 864 96
WIRE 864 320 416 320
WIRE 960 368 960 304
WIRE -112 384 -144 384
WIRE 64 384 -32 384
WIRE 896 384 896 208
WIRE 896 384 416 384
WIRE -240 448 -256 448
WIRE 64 448 -160 448
WIRE 912 448 416 448
WIRE 960 480 960 464
WIRE 240 528 240 512
FLAG 544 0 0
FLAG 624 224 0
FLAG 752 272 0
FLAG 832 -48 0
FLAG -384 -16 0
FLAG -176 112 0
FLAG -144 256 0
FLAG 960 480 0
FLAG -32 320 0
FLAG -144 384 0
FLAG 240 528 0
FLAG -256 448 0
FLAG -384 -160 IN
FLAG -272 -32 0
FLAG -320 192 0
SYMBOL cap 464 16 R270
WINDOW 0 32 32 VTop 0
WINDOW 3 0 32 VBottom 0
SYMATTR InstName C1
SYMATTR Value 4.7µ
SYMBOL nmos 576 -16 R0
SYMATTR InstName Q1
SYMATTR Value Si7850DP
SYMBOL res 608 128 R0
SYMATTR InstName R1
SYMATTR Value .015
SYMBOL ind 368 -144 R270
WINDOW 0 32 56 VTop 0
WINDOW 3 5 56 VBottom 0
SYMATTR InstName L1
SYMATTR Value 22µ
SYMATTR SpiceLine Rser=.2 Rpar=2K
SYMBOL res 736 48 R0
SYMATTR InstName R2
SYMATTR Value 1Meg
SYMBOL res 736 160 R0
SYMATTR InstName R3
SYMATTR Value 23.7K
SYMBOL schottky 656 -144 R270
WINDOW 0 32 32 VTop 0
WINDOW 3 -1 32 VBottom 0
SYMATTR InstName D1
SYMATTR Value MBRS360
SYMATTR Description Diode
SYMATTR Type diode
SYMBOL res 944 96 R0
SYMATTR InstName R4
SYMATTR Value .1
SYMBOL cap 816 -128 R0
SYMATTR SpiceLine Rser=20m
SYMATTR InstName C2
SYMATTR Value 4.7µ
SYMBOL voltage -384 -144 R0
WINDOW 123 0 0 Left 0
WINDOW 39 0 0 Left 0
SYMATTR InstName V1
SYMATTR Value 14
SYMBOL res -192 -144 R0
SYMATTR InstName R5
SYMATTR Value 1Meg
SYMBOL res -192 0 R0
SYMATTR InstName R6
SYMATTR Value 187K
SYMBOL cap -64 240 R90
WINDOW 0 0 32 VBottom 0
WINDOW 3 29 32 VTop 0
WINDOW 39 51 32 VTop 0
SYMATTR InstName C3
SYMATTR Value 1000p
SYMATTR SpiceLine Rser=10K
SYMBOL nmos 912 368 R0
SYMATTR InstName Q2
SYMATTR Value Si7850DP
SYMBOL LED 944 240 R0
WINDOW 3 29 67 Left 0
WINDOW 123 23 95 Left 0
SYMATTR Value LXK2-PW14
SYMATTR Value2 N=13
SYMATTR InstName D2
SYMATTR Description Diode
SYMATTR Type diode
SYMBOL cap 48 304 R90
WINDOW 0 0 32 VBottom 0
WINDOW 3 32 32 VTop 0
SYMATTR InstName C4
SYMATTR Value .01µ
SYMBOL res -16 368 R90
WINDOW 0 0 56 VBottom 0
WINDOW 3 32 56 VTop 0
SYMATTR InstName R7
SYMATTR Value 28.7K
SYMBOL voltage -144 448 R90
WINDOW 0 -32 56 VBottom 0
WINDOW 3 32 56 VTop 0
WINDOW 123 0 0 Left 0
WINDOW 39 0 0 Left 0
SYMATTR InstName V2
SYMATTR Value PULSE(3.3 0 1.9m 1u 1u .5m 1m)
SYMBOL PowerProducts\\LT3755-2 240 224 R0
SYMATTR InstName U1
SYMBOL cap -288 -128 R0
SYMATTR InstName C5
SYMATTR Value 4.7µ
SYMBOL res -32 -112 R0
SYMATTR InstName R8
SYMATTR Value 100K
SYMBOL res 32 112 R90
WINDOW 0 0 56 VBottom 0
WINDOW 3 32 56 VTop 0
SYMATTR InstName R9
SYMATTR Value 16.9K
SYMBOL res -272 208 R270
WINDOW 0 32 56 VTop 0
WINDOW 3 0 56 VBottom 0
SYMATTR InstName R10
SYMATTR Value 100K
TEXT 592 480 Left 0 !.tran 4m startup
TEXT -176 176 Left 0 ;NTC
TEXT -264 568 Left 0 ;Note:\n  If the simulation model is not found please update with the "Sync Release" command from the "Tools" menu.\n  It remains the customer's responsibility to verify proper and reliable operation in the actual application.\n  Component substitution and printed circuit board layout may significantly affect circuit performance or reliability.\n  Contact your local sales representative for assistance. This circuit is distributed to customers only for use with LTC parts.\n  Copyright © 2011 Linear Technology Inc. All rights reserved.
TEXT 264 -216 Bottom 0 ;LT3755-2 - 40VIN, 75VOUT LED Controller\n50W White LED Automotive Headlamp Driver (Vin 8V to 40V)
CIRCLE Normal -112 240 -304 144 2
