Version 4
SHEET 1 1716 692
WIRE -224 -64 -336 -64
WIRE 0 -64 -224 -64
WIRE 192 -64 0 -64
WIRE 528 -64 192 -64
WIRE 656 -64 576 -64
WIRE 752 -64 720 -64
WIRE 864 -64 752 -64
WIRE 1072 -64 864 -64
WIRE -336 -48 -336 -64
WIRE -224 -48 -224 -64
WIRE 0 -48 0 -64
WIRE 528 -48 528 -64
WIRE 576 -48 576 -64
WIRE 752 -48 752 -64
WIRE 864 -48 864 -64
WIRE 1072 -48 1072 -64
WIRE 192 32 192 -64
WIRE -336 48 -336 32
WIRE -224 48 -224 16
WIRE 576 48 576 32
WIRE 752 48 752 16
WIRE 864 48 864 16
WIRE 1072 48 1072 32
WIRE -144 96 -160 96
WIRE 0 96 0 32
WIRE 0 96 -64 96
WIRE 32 96 0 96
WIRE 368 96 352 96
WIRE 528 96 528 32
WIRE 528 96 448 96
WIRE -112 176 -160 176
WIRE 32 176 -32 176
WIRE 368 176 352 176
WIRE 464 176 448 176
WIRE 528 176 528 96
WIRE -144 256 -160 256
WIRE -64 256 -80 256
WIRE 32 256 16 256
WIRE 480 256 352 256
WIRE -96 336 -160 336
WIRE 32 336 -32 336
WIRE 528 336 528 272
WIRE 528 336 352 336
WIRE 528 352 528 336
WIRE 128 416 128 400
WIRE 256 416 256 400
WIRE 528 448 528 432
WIRE 256 496 256 480
FLAG -160 336 0
FLAG -160 256 0
FLAG -160 176 0
FLAG -336 48 0
FLAG 256 496 0
FLAG 464 176 0
FLAG 752 48 0
FLAG 576 48 0
FLAG 1072 48 0
FLAG -336 -64 IN
FLAG 1072 -64 OUT
FLAG -160 96 0
FLAG 128 416 0
FLAG 528 448 0
FLAG -224 48 0
FLAG 864 48 0
SYMBOL res -16 160 R90
WINDOW 0 0 56 VBottom 0
WINDOW 3 32 56 VTop 0
SYMATTR InstName R1
SYMATTR Value 34.8K
SYMBOL voltage -336 -64 M0
WINDOW 123 0 0 Left 0
WINDOW 39 -20 37 Right 0
WINDOW 0 -20 9 Right 0
WINDOW 3 -25 99 Right 0
SYMATTR InstName V1
SYMATTR Value 12
SYMBOL cap -80 240 R90
WINDOW 0 0 32 VBottom 0
WINDOW 3 32 32 VTop 0
SYMATTR InstName C1
SYMATTR Value 100n
SYMBOL cap 240 480 M180
WINDOW 0 24 64 Left 0
WINDOW 3 24 8 Left 0
SYMATTR InstName C2
SYMATTR Value 4.7µ
SYMBOL res 464 80 R90
WINDOW 0 0 56 VBottom 0
WINDOW 3 32 56 VTop 0
SYMATTR InstName R2
SYMATTR Value 52.3K
SYMBOL res 464 160 R90
WINDOW 0 0 56 VBottom 0
WINDOW 3 32 56 VTop 0
SYMATTR InstName R3
SYMATTR Value 6.04K
SYMBOL ind2 512 -64 R0
WINDOW 0 2 42 Right 0
WINDOW 3 3 75 Right 0
SYMATTR InstName L1
SYMATTR Value 20µ
SYMATTR Type ind
SYMATTR SpiceLine Rpar=50K
SYMBOL ind2 592 48 R180
WINDOW 0 4 71 Right 0
WINDOW 3 0 37 Right 0
SYMATTR InstName L2
SYMATTR Value 5µ
SYMATTR Type ind
SYMATTR SpiceLine Rpar=50K
SYMBOL cap 736 -48 R0
SYMATTR InstName C3
SYMATTR Value 100µ
SYMATTR SpiceLine V=10
SYMBOL schottky 656 -48 R270
WINDOW 0 32 32 VTop 0
WINDOW 3 -5 32 VBottom 0
SYMATTR InstName D1
SYMATTR Value PDS760
SYMATTR Description Diode
SYMATTR Type diode
SYMBOL res 32 240 R90
WINDOW 0 0 56 VBottom 0
WINDOW 3 32 56 VTop 0
SYMATTR InstName R4
SYMATTR Value 1K
SYMBOL cap -96 320 M90
WINDOW 0 0 32 VBottom 0
WINDOW 3 32 32 VTop 0
SYMATTR InstName C4
SYMATTR Value .002µ
SYMBOL res -16 -64 R0
SYMATTR InstName R5
SYMATTR Value 825K
SYMBOL res -48 80 R90
WINDOW 0 0 56 VBottom 0
WINDOW 3 32 56 VTop 0
SYMATTR InstName R6
SYMATTR Value 215K
SYMBOL PowerProducts\\LT3748 192 208 R0
SYMATTR InstName U1
SYMBOL nmos 480 176 R0
SYMATTR InstName Q1
SYMATTR Value Si4490DY
SYMBOL res 512 336 R0
SYMATTR InstName R7
SYMATTR Value 6m
SYMBOL res 1056 -64 R0
SYMATTR InstName Rload
SYMATTR Value 2.5
SYMBOL cap -240 -48 R0
SYMATTR InstName C5
SYMATTR Value 10µ
SYMBOL zener 848 16 M180
WINDOW 0 24 63 Left 0
WINDOW 3 24 0 Left 0
SYMATTR InstName D2
SYMATTR Value BZX84C6V2L
TEXT 552 -64 Bottom 0 !K1 L1 L2 1
TEXT 840 392 Left 0 !.tran 5m startup
TEXT 360 -104 Bottom 0 ;LT3748 - 5V, 2A Isolated Output from Automotive Input with Continuous Operation from 6V to 45V \nInput: 6V to 45V    Output: 5V @ 2A
TEXT -208 512 Left 0 ;Note:\n  If the simulation model is not found please update with the "Sync Release" command from the "Tools" menu.\n  It remains the customer's responsibility to verify proper and reliable operation in the actual application.\n  Component substitution and printed circuit board layout may significantly affect circuit performance or reliability.\n  Contact your local sales representative for assistance. This circuit is distributed to customers only for use with LTC parts.\n  Copyright © 2010 Linear Technology Inc. All rights reserved.
