Version 4
SHEET 1 2028 1084
WIRE -144 -224 -240 -224
WIRE -32 -224 -144 -224
WIRE 112 -224 -32 -224
WIRE 208 -224 112 -224
WIRE 304 -224 208 -224
WIRE 320 -224 304 -224
WIRE 464 -224 400 -224
WIRE 592 -224 544 -224
WIRE 672 -224 592 -224
WIRE 816 -224 736 -224
WIRE 928 -224 816 -224
WIRE 992 -224 928 -224
WIRE -240 -208 -240 -224
WIRE -144 -208 -144 -224
WIRE -32 -208 -32 -224
WIRE 816 -208 816 -224
WIRE 992 -208 992 -224
WIRE 592 -192 592 -224
WIRE 112 -176 112 -224
WIRE 208 -176 208 -224
WIRE 304 -176 304 -224
WIRE 400 -176 400 -224
WIRE 992 -128 992 -144
WIRE -240 -112 -240 -128
WIRE -144 -112 -144 -128
WIRE 48 -112 -144 -112
WIRE 544 -112 464 -112
WIRE 816 -112 816 -128
WIRE 816 -112 768 -112
WIRE -144 -96 -144 -112
WIRE 816 -96 816 -112
WIRE 48 -16 32 -16
WIRE 592 -16 592 -96
WIRE 592 -16 464 -16
WIRE -144 0 -144 -16
WIRE 592 0 592 -16
WIRE 816 0 816 -16
WIRE 32 80 32 -16
WIRE 48 80 32 80
WIRE 480 80 464 80
WIRE 592 96 592 80
WIRE 32 176 32 80
WIRE 48 176 32 176
WIRE 768 176 768 -112
WIRE 768 176 464 176
WIRE -192 272 -224 272
WIRE -112 272 -192 272
WIRE 48 272 -112 272
WIRE 928 272 928 -224
WIRE 928 272 464 272
WIRE -192 288 -192 272
WIRE -112 288 -112 272
WIRE -16 368 -64 368
WIRE 48 368 -16 368
WIRE 928 368 928 352
WIRE 928 368 464 368
WIRE -192 384 -192 352
WIRE -112 384 -112 368
WIRE -64 416 -64 368
WIRE -64 416 -224 416
WIRE 928 448 928 368
WIRE -144 464 -224 464
WIRE 48 464 -144 464
WIRE 880 464 464 464
WIRE -32 560 -224 560
WIRE 48 560 -32 560
WIRE 496 560 464 560
WIRE 528 560 496 560
WIRE 608 560 592 560
WIRE 928 576 928 544
WIRE -144 592 -144 464
WIRE -32 592 -32 560
WIRE 112 640 112 624
WIRE 208 640 208 624
WIRE 304 640 304 624
WIRE 416 640 416 624
WIRE 928 656 928 640
WIRE 112 720 112 704
WIRE 208 736 208 720
WIRE 416 736 416 704
WIRE 112 816 112 800
WIRE -144 848 -144 672
WIRE -32 848 -32 672
WIRE -32 848 -144 848
WIRE 496 848 496 560
WIRE 496 848 -32 848
FLAG -240 -112 0
FLAG -144 0 0
FLAG -16 432 0
FLAG 112 816 0
FLAG 208 736 0
FLAG 304 640 0
FLAG 416 736 0
FLAG 608 560 0
FLAG 480 80 0
FLAG 592 96 0
FLAG 928 656 0
FLAG 816 0 0
FLAG 992 -128 0
FLAG 992 -224 OUT
FLAG -240 -224 IN
FLAG -32 -144 0
FLAG -224 272 CSOUT
FLAG -224 560 _VMODE
FLAG -224 464 _FAULT
FLAG -192 384 0
FLAG -112 384 0
FLAG -224 416 ISMON
SYMBOL PowerProducts\\LT3796 256 224 R0
SYMATTR InstName U1
SYMBOL voltage -240 -224 R0
WINDOW 123 0 0 Left 2
WINDOW 39 0 0 Left 2
SYMATTR InstName V1
SYMATTR Value 12
SYMBOL res 304 -208 R270
WINDOW 0 32 56 VTop 2
WINDOW 3 0 56 VBottom 2
SYMATTR InstName R3
SYMATTR Value 25m
SYMBOL res -160 -224 R0
SYMATTR InstName R1
SYMATTR Value 499K
SYMBOL res -160 -112 R0
SYMATTR InstName R2
SYMATTR Value 97.6K
SYMBOL cap -32 368 R0
WINDOW 0 35 19 Left 2
WINDOW 3 24 48 Left 2
SYMATTR InstName C7
SYMATTR Value .1µ
SYMBOL cap 96 640 R0
WINDOW 39 24 77 Left 2
SYMATTR InstName C3
SYMATTR Value 10n
SYMBOL res 192 624 R0
SYMATTR InstName R10
SYMATTR Value 26.1K
SYMBOL cap 400 640 R0
SYMATTR InstName C4
SYMATTR Value .1µ
SYMBOL cap 528 576 R270
WINDOW 0 32 32 VTop 2
WINDOW 3 -10 32 VBottom 2
SYMATTR InstName C5
SYMATTR Value 4.7µ
SYMBOL res 576 -16 R0
SYMATTR InstName R4
SYMATTR Value 15m
SYMBOL res 912 256 R0
SYMATTR InstName R7
SYMATTR Value 620m
SYMBOL LED 912 576 R0
WINDOW 123 44 75 Left 2
WINDOW 3 74 38 Left 2
SYMATTR Value2 N=25
SYMATTR Value LXHL-BW02
SYMATTR InstName D2
SYMATTR Description Diode
SYMATTR Type diode
SYMBOL res 800 -224 R0
SYMATTR InstName R5
SYMATTR Value 1Meg
SYMBOL res 800 -112 R0
SYMATTR InstName R6
SYMATTR Value 13.7K
SYMBOL cap 976 -208 R0
WINDOW 123 25 60 Left 2
WINDOW 3 40 35 Left 2
SYMATTR Value2 x4
SYMATTR Value 2.2µ
SYMATTR InstName C2
SYMATTR SpiceLine Rser=10m
SYMBOL ind 448 -208 R270
WINDOW 0 32 56 VTop 2
WINDOW 3 5 56 VBottom 2
SYMATTR InstName L1
SYMATTR Value 22µ
SYMATTR SpiceLine Rser=20m Rpar=10K
SYMBOL schottky 672 -208 R270
WINDOW 0 32 32 VTop 2
WINDOW 3 0 32 VBottom 2
SYMATTR InstName D1
SYMATTR Value PDS5100
SYMATTR Description Diode
SYMATTR Type diode
SYMBOL res 96 704 R0
SYMATTR InstName R9
SYMATTR Value 4.7K
SYMBOL cap -48 -208 R0
WINDOW 3 31 48 Left 2
SYMATTR Value 4.7µ
SYMATTR InstName C1
SYMBOL res -160 576 R0
SYMATTR InstName R12
SYMATTR Value 100K
SYMBOL res -48 576 R0
SYMATTR InstName R11
SYMATTR Value 100K
SYMBOL cap -208 288 R0
SYMATTR InstName C6
SYMATTR Value 0.1µ
SYMBOL res -128 272 R0
SYMATTR InstName R8
SYMATTR Value 82.5K
SYMBOL nmos 544 -192 R0
SYMATTR InstName M1
SYMATTR Value RJK1051DPB
SYMBOL pmos 880 544 M180
WINDOW 0 57 67 Left 2
WINDOW 3 57 33 Left 2
SYMATTR InstName M2
SYMATTR Value Si7113DN
TEXT 728 768 Left 2 !.tran 5m startup
TEXT -248 848 Left 2 ;Note:\n  If the simulation model is not found please update with the "Sync Release" command from the "Tools" menu.\n  It remains the customer's responsibility to verify proper and reliable operation in the actual application.\n  Component substitution and printed circuit board layout may significantly affect circuit performance or reliability.\n  Contact your local sales representative for assistance. This circuit is distributed to customers only for use with LTC parts.\n  Copyright © 2012 Linear Technology Inc. All rights reserved.
TEXT 376 -272 Bottom 2 ;LT3796 - 100V Constant-Current and Constant-Voltage Controller with Dual Current Sense\nBoost LED Driver with Input Current Monitor\nInput: 9V to 60V (100V Transient)       Output: 85V LED String @ 400mA
