Version 4
SHEET 1 1928 1256
WIRE -2944 -112 -3024 -112
WIRE -2864 -112 -2944 -112
WIRE -2768 -112 -2864 -112
WIRE -2624 -112 -2768 -112
WIRE -1792 -112 -2624 -112
WIRE -1632 -112 -1744 -112
WIRE -1584 -112 -1632 -112
WIRE -1440 -112 -1504 -112
WIRE -1344 -112 -1440 -112
WIRE -1248 -112 -1344 -112
WIRE -1104 -112 -1248 -112
WIRE -1056 -112 -1104 -112
WIRE -3024 -96 -3024 -112
WIRE -2864 -96 -2864 -112
WIRE -2768 -96 -2768 -112
WIRE -1792 -96 -1792 -112
WIRE -1744 -96 -1744 -112
WIRE -1632 -96 -1632 -112
WIRE -1440 -96 -1440 -112
WIRE -1344 -96 -1344 -112
WIRE -1248 -96 -1248 -112
WIRE -1056 -96 -1056 -112
WIRE -2864 -16 -2864 -32
WIRE -2768 -16 -2768 -32
WIRE -3024 0 -3024 -16
WIRE -1936 0 -1984 0
WIRE -1840 0 -1872 0
WIRE -1792 0 -1792 -16
WIRE -1792 0 -1840 0
WIRE -1744 0 -1744 -16
WIRE -1728 0 -1744 0
WIRE -1632 0 -1632 -32
WIRE -1440 0 -1440 -32
WIRE -1344 0 -1344 -32
WIRE -1056 0 -1056 -16
WIRE -1984 16 -1984 0
WIRE -1728 16 -1728 0
WIRE -2528 80 -2528 64
WIRE -2432 80 -2432 64
WIRE -2304 96 -2336 96
WIRE -2176 96 -2240 96
WIRE -2080 96 -2176 96
WIRE -2032 96 -2080 96
WIRE -1728 96 -1728 80
WIRE -2176 112 -2176 96
WIRE -2080 112 -2080 96
WIRE -1984 128 -1984 112
WIRE -2944 144 -2944 -112
WIRE -2432 160 -2432 144
WIRE -2208 160 -2432 160
WIRE -1840 160 -1840 0
WIRE -2624 176 -2624 -112
WIRE -2528 176 -2528 160
WIRE -2432 176 -2432 160
WIRE -2336 176 -2336 96
WIRE -2176 208 -2176 192
WIRE -2080 208 -2080 176
WIRE -2944 240 -2944 224
WIRE -2736 240 -2944 240
WIRE -1888 240 -2224 240
WIRE -2944 256 -2944 240
WIRE -2208 304 -2208 160
WIRE -2096 304 -2208 304
WIRE -1984 304 -2016 304
WIRE -1760 304 -1984 304
WIRE -1984 320 -1984 304
WIRE -1440 320 -1536 320
WIRE -1344 320 -1440 320
WIRE -1248 320 -1248 -16
WIRE -1248 320 -1344 320
WIRE -2736 336 -2944 336
WIRE -2112 336 -2224 336
WIRE -1536 336 -1536 320
WIRE -1440 336 -1440 320
WIRE -1344 336 -1344 320
WIRE -1248 336 -1248 320
WIRE -2944 352 -2944 336
WIRE -1984 400 -1984 384
WIRE -1344 416 -1344 400
WIRE -1248 416 -1248 400
WIRE -2832 432 -2848 432
WIRE -2752 432 -2768 432
WIRE -2736 432 -2752 432
WIRE -2208 432 -2224 432
WIRE -2112 432 -2112 336
WIRE -2112 432 -2128 432
WIRE -1840 432 -1840 256
WIRE -1840 432 -2112 432
WIRE -1536 432 -1536 416
WIRE -1440 432 -1440 400
WIRE -1440 432 -1536 432
WIRE -2944 448 -2944 432
WIRE -1840 448 -1840 432
WIRE -2752 480 -2752 432
WIRE -2752 480 -2864 480
WIRE -1440 512 -1504 512
WIRE -1344 512 -1376 512
WIRE -1216 512 -1264 512
WIRE -2816 528 -2832 528
WIRE -2736 528 -2752 528
WIRE -2208 528 -2224 528
WIRE -1760 528 -1760 304
WIRE -1744 528 -1760 528
WIRE -1536 528 -1536 432
WIRE -1536 528 -1552 528
WIRE -1104 528 -1104 -112
WIRE -1840 544 -1840 528
WIRE -2960 576 -2976 576
WIRE -2864 576 -2864 480
WIRE -2864 576 -2880 576
WIRE -2208 624 -2224 624
WIRE -2112 624 -2128 624
WIRE -2096 624 -2112 624
WIRE -1856 624 -2016 624
WIRE -1744 624 -1856 624
WIRE -1504 624 -1504 512
WIRE -1504 624 -1552 624
WIRE -1488 624 -1504 624
WIRE -1216 624 -1216 512
WIRE -1216 624 -1232 624
WIRE -1104 624 -1104 608
WIRE -1104 624 -1216 624
WIRE -1856 640 -1856 624
WIRE -1104 640 -1104 624
WIRE -2736 720 -2752 720
WIRE -2112 720 -2112 624
WIRE -2112 720 -2224 720
WIRE -1856 736 -1856 720
WIRE -1104 736 -1104 720
WIRE -1504 752 -1504 624
WIRE -1488 752 -1504 752
WIRE -1216 752 -1232 752
WIRE -2736 816 -2752 816
WIRE -1216 816 -1232 816
WIRE -2672 896 -2672 880
WIRE -2576 896 -2576 880
WIRE -2480 896 -2480 880
WIRE -2672 992 -2672 976
WIRE -2576 992 -2576 976
WIRE -2480 992 -2480 976
FLAG -1840 544 0
FLAG -1440 0 0
FLAG -1056 0 0
FLAG -1104 736 0
FLAG -2944 448 0
FLAG -3024 0 0
FLAG -3024 -112 IN
FLAG -1056 -112 OUT
FLAG -2432 64 0
FLAG -1856 736 0
FLAG -2848 432 0
FLAG -2832 528 0
FLAG -2528 64 0
FLAG -2672 992 0
FLAG -2576 992 0
FLAG -2480 992 0
FLAG -2208 528 0
FLAG -1728 96 0
FLAG -1632 0 0
FLAG -1344 0 0
FLAG -1984 128 0
FLAG -2080 208 0
FLAG -2176 208 0
FLAG -2752 720 0
FLAG -2752 816 0
FLAG -1984 400 0
FLAG -1216 752 0
FLAG -1216 816 0
FLAG -1344 416 0
FLAG -1248 416 0
FLAG -2976 576 0
FLAG -2864 -16 0
FLAG -2768 -16 0
SYMBOL res -1856 432 R0
SYMATTR InstName R1
SYMATTR Value 4m
SYMBOL ind2 -1808 -112 R0
WINDOW 0 -8 37 Right 2
WINDOW 3 -5 77 Right 2
SYMATTR InstName L1
SYMATTR Value 18µ
SYMATTR Type ind
SYMATTR SpiceLine Rser=4.4m Rpar=5k
SYMBOL ind2 -1728 -112 M0
WINDOW 0 -1 35 Right 2
WINDOW 3 -7 80 Right 2
SYMATTR InstName L2
SYMATTR Value 968µ
SYMATTR Type ind
SYMATTR SpiceLine Rser=243m
SYMBOL ind -1600 -96 R270
WINDOW 0 32 56 VTop 2
WINDOW 3 5 56 VBottom 2
SYMATTR InstName L3
SYMATTR Value 330µ
SYMATTR SpiceLine Rser=5m Rpar=10K
SYMBOL cap -1456 -96 R0
WINDOW 123 24 55 Left 2
WINDOW 3 38 32 Left 2
SYMATTR Value2 x2
SYMATTR Value 4.7µ
SYMATTR InstName C1
SYMATTR SpiceLine Rser=10m
SYMBOL res -1120 512 R0
WINDOW 3 31 72 Left 2
SYMATTR Value 196K
SYMATTR InstName R2
SYMBOL res -1120 624 R0
SYMATTR InstName R3
SYMATTR Value 9.53K
SYMBOL res -2960 240 R0
SYMATTR InstName R4
SYMATTR Value 12.7K
SYMBOL res -2960 336 R0
SYMATTR InstName R5
SYMATTR Value 2.55K
SYMBOL voltage -3024 -112 R0
WINDOW 123 0 0 Left 2
WINDOW 39 0 0 Left 2
SYMATTR InstName V1
SYMATTR Value 24
SYMBOL cap -2448 144 M180
WINDOW 0 24 56 Left 2
WINDOW 3 24 8 Left 2
SYMATTR InstName C2
SYMATTR Value 4.7µ
SYMBOL nmos -1888 160 R0
WINDOW 0 57 31 Left 2
WINDOW 3 60 66 Left 2
SYMATTR InstName Q1
SYMATTR Value BSC060N10NS3
SYMBOL res -2960 128 R0
SYMATTR InstName R6
SYMATTR Value 100K
SYMBOL res -1552 320 R0
SYMATTR InstName R7
SYMATTR Value 1.5K
SYMBOL res -2112 320 R270
WINDOW 0 32 56 VTop 2
WINDOW 3 0 56 VBottom 2
SYMATTR InstName R8
SYMATTR Value 100
SYMBOL res -1872 624 R0
SYMATTR InstName R9
SYMATTR Value 340
SYMBOL Optos\\PC817D -1648 576 M0
SYMATTR InstName U1
SYMBOL cap -2768 448 M270
WINDOW 0 32 32 VTop 2
WINDOW 3 0 32 VBottom 2
SYMATTR InstName C3
SYMATTR Value .4µ
SYMBOL cap -2752 544 M270
WINDOW 0 32 32 VTop 2
WINDOW 3 0 32 VBottom 2
SYMATTR InstName C4
SYMATTR Value .01µ
SYMBOL res -2544 176 M180
WINDOW 0 36 76 Left 2
WINDOW 3 36 40 Left 2
SYMATTR InstName R10
SYMATTR Value 82.5K
SYMBOL res -2688 880 R0
SYMATTR InstName R11
SYMATTR Value 187K
SYMBOL res -2592 880 R0
SYMATTR InstName R12
SYMATTR Value 100K
SYMBOL res -2496 880 R0
SYMATTR InstName R13
SYMATTR Value 44.2K
SYMBOL res -2224 448 R270
WINDOW 0 32 56 VTop 2
WINDOW 3 0 56 VBottom 2
SYMATTR InstName R14
SYMATTR Value 3K
SYMBOL polcap -1360 -96 R0
SYMATTR Value 47µ
SYMATTR InstName C5
SYMATTR SpiceLine V=16 Irms=920m Rser=0.08 Lser=0 mfg="Nichicon" pn="UPL1C561MRH6" type="Al electrolytic"
SYMATTR Description Capacitor
SYMATTR Type cap
SYMBOL cap -1872 -16 R90
WINDOW 0 0 32 VBottom 2
WINDOW 3 32 32 VTop 2
SYMATTR InstName C6
SYMATTR Value .22µ
SYMBOL pmos -2032 16 R0
WINDOW 0 54 28 Left 2
WINDOW 3 55 68 Left 2
SYMATTR InstName Q2
SYMATTR Value Si7113DN
SYMBOL cap -2240 80 R90
WINDOW 0 0 32 VBottom 2
WINDOW 3 32 32 VTop 2
SYMATTR InstName C7
SYMATTR Value .1µ
SYMBOL res -2192 96 R0
SYMATTR InstName R15
SYMATTR Value 10K
SYMBOL schottky -2096 112 R0
SYMATTR InstName D1
SYMATTR Value BAT46WJ
SYMATTR Description Diode
SYMATTR Type diode
SYMBOL res -2112 608 R90
WINDOW 0 0 56 VBottom 2
WINDOW 3 32 56 VTop 2
SYMATTR InstName R16
SYMATTR Value 100K
SYMBOL res -2000 608 R90
WINDOW 0 0 56 VBottom 2
WINDOW 3 32 56 VTop 2
SYMATTR InstName R17
SYMATTR Value 59K
SYMBOL cap -1456 336 R0
SYMATTR InstName C8
SYMATTR Value 4700p
SYMBOL PowerProducts\\LT3753 -2480 528 R0
SYMATTR InstName U2
SYMBOL cap -2000 320 R0
SYMATTR InstName C9
SYMATTR Value 1µ
SYMBOL References\\LT1431 -1360 720 R0
SYMATTR InstName U3
SYMBOL cap -1440 528 R270
WINDOW 0 32 32 VTop 2
WINDOW 3 0 32 VBottom 2
WINDOW 39 -21 32 VBottom 2
SYMATTR InstName C10
SYMATTR Value 3900p
SYMBOL res -1264 -112 R0
SYMATTR InstName R18
SYMATTR Value 1K
SYMBOL cap -1360 336 R0
SYMATTR InstName C11
SYMATTR Value 2.2µ
SYMBOL zener -1264 400 M180
WINDOW 0 24 64 Left 2
WINDOW 3 24 0 Left 2
SYMATTR InstName D2
SYMATTR Value BZX84C10L
SYMATTR Description Diode
SYMATTR Type diode
SYMBOL diode -1648 -32 M180
WINDOW 0 24 64 Left 2
WINDOW 3 24 0 Left 2
SYMATTR InstName D3
SYMATTR Value RFN10BM6S
SYMBOL diode -1744 80 M180
WINDOW 0 24 64 Left 2
WINDOW 3 24 0 Left 2
SYMATTR InstName D4
SYMATTR Value RFN10BM6S
SYMBOL current -2960 576 M90
WINDOW 0 -32 40 VBottom 2
WINDOW 3 32 40 VTop 2
WINDOW 123 74 40 VTop 2
WINDOW 39 53 40 VTop 2
SYMATTR InstName I1
SYMATTR Value PULSE(0 100u 2m 1n 1n 5m)
SYMBOL res -1248 496 R90
WINDOW 0 0 56 VBottom 2
WINDOW 3 32 56 VTop 2
SYMATTR InstName R19
SYMATTR Value 56.2K
SYMBOL res -1072 -112 R0
SYMATTR InstName Rload
SYMATTR Value 54
SYMBOL cap -2880 -96 R0
WINDOW 123 24 77 Left 2
SYMATTR Value 4.7µ
SYMATTR InstName C12
SYMATTR SpiceLine Rser=10m
SYMBOL polcap -2784 -96 R0
SYMATTR Value 56µ
SYMATTR InstName C13
SYMATTR SpiceLine V=16 Irms=920m Rser=0.08 Lser=0 mfg="Nichicon" pn="UPL1C561MRH6" type="Al electrolytic"
SYMATTR Description Capacitor
SYMATTR Type cap
TEXT -1768 -128 Bottom 2 !K1 L1 L2 1
TEXT -1376 944 Left 2 !.tran 36m startup uic
TEXT -2016 -168 Bottom 2 ;LT3753 - Active Clamp Synchronous Forward Controller\nLT1431 - Programmable Reference\n80W Active Clamp Non-Synchronous Forword Converter for PoE Applications\nInput: 10V to 54V     Output: 54V @ 1.5A
TEXT -2808 1008 Left 2 ;Notes:\n  Current source I1 and smaller SS capacitors values are being used to reduce simulation time. See datasheet typical values for SS capacitors .\n  If the simulation model is not found please update with the "Sync Release" command from the "Tools" menu.\n  It remains the customer's responsibility to verify proper and reliable operation in the actual application.\n  Component substitution and printed circuit board layout may significantly affect circuit performance or reliability.\n  Contact your local sales representative for assistance. This circuit is distributed to customers only for use with LTC parts.\n  Copyright © 2017 Linear Technology Inc.  All rights reserved.
