Version 4
SHEET 1 1840 832
WIRE -272 -688 -384 -688
WIRE -112 -688 -272 -688
WIRE 208 -688 -112 -688
WIRE 256 -688 208 -688
WIRE 368 -688 336 -688
WIRE 432 -688 368 -688
WIRE 608 -688 432 -688
WIRE 736 -688 608 -688
WIRE 208 -672 208 -688
WIRE 368 -672 368 -688
WIRE 608 -672 608 -688
WIRE -384 -656 -384 -688
WIRE -272 -640 -272 -688
WIRE 608 -592 608 -608
WIRE 432 -576 432 -688
WIRE 448 -576 432 -576
WIRE 528 -576 512 -576
WIRE 208 -560 208 -592
WIRE 240 -560 208 -560
WIRE 256 -560 240 -560
WIRE 336 -560 320 -560
WIRE 368 -560 368 -592
WIRE 368 -560 336 -560
WIRE -384 -544 -384 -576
WIRE -272 -544 -272 -576
WIRE 608 -528 608 -544
WIRE 240 -512 240 -560
WIRE 336 -512 336 -560
WIRE 432 -512 432 -576
WIRE -16 -448 -48 -448
WIRE 144 -448 64 -448
WIRE 560 -448 528 -448
WIRE 608 -448 608 -464
WIRE 608 -448 560 -448
WIRE 608 -432 608 -448
WIRE 144 -352 112 -352
WIRE 608 -352 608 -368
WIRE 608 -352 528 -352
WIRE 736 -336 736 -688
WIRE 32 -256 16 -256
WIRE 112 -256 112 -352
WIRE 112 -256 96 -256
WIRE 144 -256 112 -256
WIRE 688 -256 528 -256
WIRE 608 -240 608 -352
WIRE -112 -176 -112 -688
WIRE 112 -160 112 -256
WIRE 144 -160 112 -160
WIRE 608 -160 608 -176
WIRE 608 -160 528 -160
WIRE 736 -160 736 -240
WIRE 736 -160 608 -160
WIRE 816 -160 736 -160
WIRE 960 -160 896 -160
WIRE 976 -160 960 -160
WIRE 1072 -160 1056 -160
WIRE 1104 -160 1072 -160
WIRE 1152 -160 1104 -160
WIRE 1280 -160 1152 -160
WIRE 736 -144 736 -160
WIRE 1280 -144 1280 -160
WIRE -112 -64 -112 -96
WIRE 144 -64 -112 -64
WIRE 688 -64 528 -64
WIRE -112 -48 -112 -64
WIRE 1280 -48 1280 -64
WIRE 736 -32 736 -48
WIRE 144 32 128 32
WIRE 736 32 528 32
WIRE 816 32 736 32
WIRE 960 32 960 -160
WIRE 960 32 896 32
WIRE -112 48 -112 32
WIRE 736 48 736 32
WIRE 1280 48 1280 16
WIRE 1104 112 1104 -160
WIRE 144 128 128 128
WIRE 736 128 736 112
WIRE 736 128 528 128
WIRE 816 128 736 128
WIRE 1072 128 1072 -160
WIRE 1072 128 896 128
WIRE 1280 144 1280 128
WIRE -32 224 -48 224
WIRE 48 224 32 224
WIRE 144 224 128 224
WIRE 864 224 528 224
WIRE 1104 224 1104 192
WIRE 1104 224 864 224
WIRE 864 240 864 224
WIRE 1104 240 1104 224
WIRE 560 304 560 -448
WIRE 608 304 560 304
WIRE 736 304 688 304
WIRE 64 320 48 320
WIRE 144 320 128 320
WIRE 864 336 864 320
WIRE 1104 336 1104 320
WIRE 144 416 112 416
WIRE 736 416 736 304
WIRE 736 416 528 416
WIRE 816 416 736 416
WIRE 864 448 864 432
WIRE 112 512 112 416
WIRE 560 512 560 304
WIRE 560 512 112 512
WIRE 272 528 272 480
WIRE 400 528 400 480
WIRE 272 624 272 608
FLAG 400 528 0
FLAG 272 624 0
FLAG 48 320 0
FLAG -48 224 0
FLAG 16 -256 0
FLAG -112 48 0
FLAG 528 -576 0
FLAG 608 -544 0
FLAG 736 -32 0
FLAG 1104 336 0
FLAG 864 448 0
FLAG -112 -688 IN
FLAG 1152 -160 OUT
FLAG 608 -592 0
FLAG -384 -544 0
FLAG -272 -544 0
FLAG 1280 144 0
FLAG -48 -448 0
SYMBOL PowerProducts\\LT3763 336 -16 R0
SYMATTR InstName U1
SYMBOL res 256 512 R0
SYMATTR InstName R1
SYMATTR Value 82.5K
SYMBOL cap 128 304 R90
WINDOW 0 0 32 VBottom 2
WINDOW 3 32 32 VTop 2
SYMATTR InstName C1
SYMATTR Value .01µ
SYMBOL cap 32 208 R90
WINDOW 0 0 32 VBottom 2
WINDOW 3 32 32 VTop 2
WINDOW 39 53 32 VTop 2
SYMATTR InstName C2
SYMATTR Value 4700p
SYMBOL cap 96 -272 R90
WINDOW 0 0 32 VBottom 2
WINDOW 3 32 32 VTop 2
SYMATTR InstName C3
SYMATTR Value 2.2µ
SYMBOL res 240 -672 R270
WINDOW 0 32 56 VTop 2
WINDOW 3 0 56 VBottom 2
SYMATTR InstName R2
SYMATTR Value 10m
SYMBOL res 192 -688 R0
WINDOW 0 37 48 Left 2
SYMATTR InstName R3
SYMATTR Value 1K
SYMBOL res 352 -688 R0
SYMATTR InstName R4
SYMATTR Value 1K
SYMBOL cap 256 -544 R270
WINDOW 0 32 32 VTop 2
WINDOW 3 0 32 VBottom 2
SYMATTR InstName C4
SYMATTR Value 1µ
SYMBOL res -128 -192 R0
SYMATTR InstName R5
SYMATTR Value 348K
SYMBOL res -128 -64 R0
SYMATTR InstName R6
SYMATTR Value 12.1K
SYMBOL cap 448 -560 R270
WINDOW 0 32 32 VTop 2
WINDOW 3 0 32 VBottom 2
SYMATTR InstName C5
SYMATTR Value 4.7µ
SYMBOL cap 592 -464 M180
WINDOW 0 24 56 Left 2
WINDOW 3 24 8 Left 2
SYMATTR InstName C6
SYMATTR Value 4.7µ
SYMBOL schottky 592 -432 R0
SYMATTR InstName D1
SYMATTR Value 1N5819
SYMATTR Description Diode
SYMATTR Type diode
SYMBOL cap 592 -240 R0
SYMATTR InstName C7
SYMATTR Value .1µ
SYMBOL nmos 688 -336 R0
SYMATTR InstName Q1
SYMATTR Value RJK0305DPB
SYMBOL nmos 688 -144 R0
SYMATTR InstName Q2
SYMATTR Value RJK0305DPB
SYMBOL ind 800 -144 R270
WINDOW 0 32 56 VTop 2
WINDOW 3 5 56 VBottom 2
SYMATTR InstName L1
SYMATTR Value 12µ
SYMATTR SpiceLine Rser=28m
SYMBOL res 960 -144 R270
WINDOW 0 32 56 VTop 2
WINDOW 3 0 56 VBottom 2
SYMATTR InstName R7
SYMATTR Value 10m
SYMBOL res 1088 96 R0
SYMATTR InstName R8
SYMATTR Value 121K
SYMBOL res 1088 224 R0
SYMATTR InstName R9
SYMATTR Value 12.1K
SYMBOL nmos 816 336 R0
SYMATTR InstName Q3
SYMATTR Value Si7540DP_N
SYMBOL res 144 208 R90
WINDOW 0 0 56 VBottom 2
WINDOW 3 32 56 VTop 2
SYMATTR InstName R10
SYMATTR Value 26.1K
SYMBOL cap 592 -672 R0
SYMATTR InstName C8
SYMATTR Value 10µ
SYMBOL res 848 224 R0
SYMATTR InstName R11
SYMATTR Value 182K
SYMBOL res 592 320 R270
WINDOW 0 32 56 VTop 2
WINDOW 3 0 56 VBottom 2
SYMATTR InstName R12
SYMATTR Value 475K
SYMBOL res 912 16 R90
WINDOW 0 0 56 VBottom 2
WINDOW 3 32 56 VTop 2
SYMATTR InstName R13
SYMATTR Value 10
SYMBOL res 912 112 R90
WINDOW 0 0 56 VBottom 2
WINDOW 3 32 56 VTop 2
SYMATTR InstName R14
SYMATTR Value 10
SYMBOL cap 720 48 R0
SYMATTR InstName C9
SYMATTR Value .033µ
SYMBOL current -384 -576 M180
WINDOW 0 24 80 Left 2
WINDOW 3 24 0 Left 2
WINDOW 123 0 0 Left 2
WINDOW 39 0 0 Left 2
SYMATTR InstName I1
SYMATTR Value 1.5
SYMBOL diode -288 -640 R0
WINDOW 3 38 33 Left 2
WINDOW 123 24 62 Left 2
SYMATTR Value MUR460
SYMATTR Value2 N=60
SYMATTR InstName D2
SYMBOL cap 1264 -48 R0
WINDOW 3 41 32 Left 2
WINDOW 39 22 55 Left 2
SYMATTR Value 6m
SYMATTR SpiceLine Rpar=5
SYMATTR InstName C10
SYMBOL voltage 80 -448 R90
WINDOW 0 -32 56 VBottom 2
WINDOW 3 32 56 VTop 2
WINDOW 123 0 0 Left 2
WINDOW 39 0 0 Left 2
SYMATTR InstName V1
SYMATTR Value PWL(.5m 0 +20u 5)
SYMBOL res 1264 -160 R0
SYMATTR InstName R15
SYMATTR Value .1
SYMBOL voltage 1280 32 R0
WINDOW 123 0 0 Left 2
WINDOW 39 0 0 Left 2
SYMATTR InstName V2
SYMATTR Value 12
TEXT 1032 464 Left 2 !.tran 7m startup
TEXT 336 -744 Bottom 2 ;LT3763 - 60V High Current Step-Down LED Driver Controller \n70W, Solar Powered SLA Battery Charger with Maximum Power Point Regulation\nInput: 37V to 60V     Output: 14V Max @ 5A
TEXT -296 648 Left 2 ;Note:\n  Expand the simulation time to 22ms to let Vout sag to the float voltage and observe the inductor current turning back at a low level.\n  If the simulation model is not found please update with the "Sync Release" command from the "Tools" menu.\n  It remains the customer's responsibility to verify proper and reliable operation in the actual application.\n  Component substitution and printed circuit board layout may significantly affect circuit performance or reliability.\n  Contact your local sales representative for assistance. This circuit is distributed to customers only for use with LTC parts.\n  Copyright © 2013 Linear Technology Inc. All rights reserved.
TEXT -296 -464 Bottom 3 ;SOLAR PANEL
TEXT 1304 -168 Bottom 3 ;BATTERY
RECTANGLE Normal -144 -432 -448 -720 2
RECTANGLE Normal 1392 192 1200 -208 2
