Version 4
SHEET 1 1448 1332
WIRE -144 -144 -400 -144
WIRE 240 -144 -144 -144
WIRE 512 -144 240 -144
WIRE 624 -144 592 -144
WIRE 704 -144 624 -144
WIRE 832 -144 768 -144
WIRE 896 -144 832 -144
WIRE 944 -144 896 -144
WIRE 1024 -144 944 -144
WIRE -400 -128 -400 -144
WIRE 896 -128 896 -144
WIRE 432 -112 -32 -112
WIRE -144 -96 -144 -144
WIRE -32 -96 -32 -112
WIRE 240 -64 240 -144
WIRE 896 -48 896 -64
WIRE -400 -32 -400 -48
WIRE 624 -16 624 -144
WIRE -144 0 -144 -16
WIRE 64 0 -144 0
WIRE 432 0 432 -112
WIRE 432 0 416 0
WIRE 464 0 432 0
WIRE 544 0 528 0
WIRE -144 16 -144 0
WIRE 1024 48 1024 -144
WIRE 1024 48 928 48
WIRE -32 64 -32 -16
WIRE 64 64 -32 64
WIRE 576 64 416 64
WIRE 832 64 832 -144
WIRE 1024 64 1024 48
WIRE -144 112 -144 96
WIRE 64 128 48 128
WIRE 624 128 624 80
WIRE 624 128 416 128
WIRE 624 144 624 128
WIRE 832 160 832 144
WIRE 832 160 784 160
WIRE 1024 160 1024 144
WIRE 1024 160 960 160
WIRE -32 176 -32 64
WIRE -32 176 -128 176
WIRE 832 176 832 160
WIRE 48 192 48 128
WIRE 64 192 48 192
WIRE 1024 240 1024 160
WIRE -96 256 -112 256
WIRE 64 256 -32 256
WIRE 784 256 784 160
WIRE 784 256 416 256
WIRE 832 272 832 256
WIRE -416 320 -480 320
WIRE -288 320 -336 320
WIRE 64 320 -288 320
WIRE 928 320 928 48
WIRE 928 320 416 320
WIRE -480 336 -480 320
WIRE -288 336 -288 320
WIRE 1024 368 1024 304
WIRE -96 384 -128 384
WIRE 64 384 -16 384
WIRE 960 384 960 160
WIRE 960 384 416 384
WIRE -288 416 -288 400
WIRE -480 432 -480 416
WIRE -16 448 -32 448
WIRE 64 448 48 448
WIRE 976 448 416 448
WIRE 1024 480 1024 464
WIRE 240 528 240 512
FLAG 544 0 0
FLAG 624 224 0
FLAG 832 272 0
FLAG 896 -48 0
FLAG -400 -32 0
FLAG -144 112 0
FLAG -112 256 0
FLAG -128 384 0
FLAG 240 528 0
FLAG -400 -144 IN
FLAG 1024 480 0
FLAG -288 416 0
FLAG -32 448 0
FLAG -480 432 0
FLAG -128 176 _OPENLED
FLAG 944 -144 OUT
SYMBOL cap 464 16 R270
WINDOW 0 32 32 VTop 2
WINDOW 3 0 32 VBottom 2
SYMATTR InstName C1
SYMATTR Value 1µ
SYMBOL nmos 576 -16 R0
SYMATTR InstName M1
SYMATTR Value BSC123N08NS3
SYMBOL res 608 128 R0
SYMATTR InstName R1
SYMATTR Value 8m
SYMBOL ind 496 -128 R270
WINDOW 0 32 56 VTop 2
WINDOW 3 5 56 VBottom 2
SYMATTR InstName L1
SYMATTR Value 10µ
SYMATTR SpiceLine Rser=15m Rpar=2K
SYMBOL res 816 48 R0
SYMATTR InstName R2
SYMATTR Value 1Meg
SYMBOL res 816 160 R0
SYMATTR InstName R3
SYMATTR Value 18.2K
SYMBOL schottky 704 -128 R270
WINDOW 0 32 32 VTop 2
WINDOW 3 0 32 VBottom 2
SYMATTR InstName D1
SYMATTR Value PDS5100
SYMATTR Description Diode
SYMATTR Type diode
SYMBOL res 1008 48 R0
SYMATTR InstName R4
SYMATTR Value .25
SYMBOL cap 880 -128 R0
WINDOW 123 33 62 Left 2
WINDOW 3 40 35 Left 2
SYMATTR Value2 x4
SYMATTR Value 2.2µ
SYMATTR InstName C2
SYMATTR SpiceLine Rser=10m
SYMBOL voltage -400 -144 R0
WINDOW 123 24 138 Left 2
WINDOW 39 24 117 Left 2
SYMATTR Value PWL(0 0 .2m 12)
SYMATTR InstName V1
SYMBOL res -160 -112 R0
SYMATTR InstName R5
SYMATTR Value 499K
SYMBOL res -160 0 R0
SYMATTR InstName R6
SYMATTR Value 90.9K
SYMBOL cap -32 240 R90
WINDOW 0 0 32 VBottom 2
WINDOW 3 32 32 VTop 2
WINDOW 39 53 32 VTop 2
SYMATTR InstName C3
SYMATTR Value 4700p
SYMATTR SpiceLine Rser=10K
SYMBOL cap -304 336 R0
SYMATTR InstName C4
SYMATTR Value .01µ
SYMBOL res 0 368 R90
WINDOW 0 0 56 VBottom 2
WINDOW 3 32 56 VTop 2
SYMATTR InstName R7
SYMATTR Value 29.4K
SYMATTR SpiceLine tol=1 pwr=0.1
SYMBOL LED 1008 240 R0
WINDOW 3 29 67 Left 2
WINDOW 123 23 95 Left 2
SYMATTR Value LXK2-PW14
SYMATTR Value2 N=17
SYMATTR InstName D4
SYMATTR Description Diode
SYMATTR Type diode
SYMBOL PowerProducts\\LT3761 240 224 R0
SYMATTR InstName U1
SYMBOL cap 48 432 R90
WINDOW 0 0 32 VBottom 2
WINDOW 3 31 29 VTop 2
SYMATTR InstName C5
SYMATTR Value 47n
SYMBOL voltage -480 320 R0
WINDOW 123 0 0 Left 2
WINDOW 39 0 0 Left 2
SYMATTR InstName V2
SYMATTR Value 4
SYMBOL res -432 336 R270
WINDOW 0 32 56 VTop 2
WINDOW 3 0 56 VBottom 2
SYMATTR InstName R8
SYMATTR Value 124K
SYMBOL res -48 -112 R0
SYMATTR InstName R9
SYMATTR Value 100K
SYMBOL nmos 976 368 R0
SYMATTR InstName M2
SYMATTR Value Si2318CDS
TEXT 632 496 Left 2 !.tran 30m startup
TEXT 272 -192 Bottom 2 ;LT3761 - High Voltage LED Controller with Internal PWM Dimming\n94% Efficient Boost LED Driver for Automotive Headlamp with 25:1 PWM Dimming\nInput: 8V to 60V      Output: 60V LED String @ 1A
TEXT -360 552 Left 2 ;Note:\n  If the simulation model is not found please update with the "Sync Release" command from the "Tools" menu.\n  It remains the customer's responsibility to verify proper and reliable operation in the actual application.\n  Component substitution and printed circuit board layout may significantly affect circuit performance or reliability.\n  Contact your local sales representative for assistance. This circuit is distributed to customers only for use with LTC parts.\n  Copyright © 2013 Linear Technology Inc. All rights reserved.
