Version 4
SHEET 1 3476 1348
WIRE 48 -224 -48 -224
WIRE 128 -224 48 -224
WIRE 464 -224 128 -224
WIRE 672 -224 464 -224
WIRE 768 -224 672 -224
WIRE 976 -224 768 -224
WIRE 1248 -224 1024 -224
WIRE 1344 -224 1248 -224
WIRE 1456 -224 1344 -224
WIRE 1568 -224 1456 -224
WIRE 1664 -224 1568 -224
WIRE -48 -208 -48 -224
WIRE 128 -208 128 -224
WIRE 672 -208 672 -224
WIRE 768 -208 768 -224
WIRE 976 -208 976 -224
WIRE 1024 -208 1024 -224
WIRE 1248 -208 1248 -224
WIRE 1456 -208 1456 -224
WIRE 1568 -208 1568 -224
WIRE 1664 -208 1664 -224
WIRE 48 -192 48 -224
WIRE 464 -160 464 -224
WIRE 672 -112 672 -144
WIRE 768 -112 768 -128
WIRE 768 -112 672 -112
WIRE 832 -112 768 -112
WIRE 944 -112 896 -112
WIRE 976 -112 976 -128
WIRE 976 -112 944 -112
WIRE 1024 -112 1024 -128
WIRE 1056 -112 1024 -112
WIRE 1136 -112 1056 -112
WIRE 1248 -112 1248 -144
WIRE 1248 -112 1200 -112
WIRE 1456 -112 1456 -128
WIRE 1568 -112 1568 -144
WIRE 1568 -112 1456 -112
WIRE 1664 -112 1664 -128
WIRE -48 -96 -48 -128
WIRE 48 -96 48 -128
WIRE 128 -96 128 -128
WIRE 304 -96 128 -96
WIRE 672 -96 624 -96
WIRE 1456 -96 1456 -112
WIRE 128 -80 128 -96
WIRE 944 -80 944 -112
WIRE 1056 -80 1056 -112
WIRE 1248 -80 1248 -112
WIRE 1344 -80 1344 -224
WIRE 896 0 624 0
WIRE 1456 0 1456 -16
WIRE 128 16 128 0
WIRE 1056 16 1056 -16
WIRE 1344 16 1344 -16
WIRE 1344 16 1056 16
WIRE 1056 32 1056 16
WIRE 192 96 176 96
WIRE 288 96 272 96
WIRE 304 96 288 96
WIRE 944 96 944 16
WIRE 944 96 624 96
WIRE 1344 96 1344 16
WIRE 944 112 944 96
WIRE 1056 112 1056 96
WIRE 1216 160 1056 160
WIRE 1568 160 1568 -112
WIRE 1568 160 1472 160
WIRE 1568 176 1568 160
WIRE 304 192 256 192
WIRE 640 192 624 192
WIRE 672 192 672 -96
WIRE 704 192 672 192
WIRE 784 192 768 192
WIRE 944 208 944 192
WIRE 1056 208 1056 160
WIRE 672 224 672 192
WIRE 464 272 464 256
WIRE 1488 272 1472 272
WIRE 1568 272 1568 256
WIRE 1568 272 1552 272
WIRE 288 304 288 96
WIRE 640 304 640 192
WIRE 640 304 288 304
WIRE 256 320 256 192
WIRE 672 320 672 304
WIRE 672 320 256 320
WIRE 800 320 672 320
WIRE 1056 320 1056 288
WIRE 1056 320 992 320
WIRE 672 352 672 320
WIRE 1344 352 1344 336
WIRE 800 416 784 416
WIRE 1008 416 992 416
WIRE 672 432 672 416
FLAG 464 272 0
FLAG -48 -96 0
FLAG 1664 -112 0
FLAG 1248 -80 0
FLAG 1344 352 0
FLAG 1456 0 0
FLAG 1152 272 0
FLAG 1008 416 0
FLAG 944 208 0
FLAG 176 96 0
FLAG 240 0 0
FLAG 784 416 0
FLAG 1664 -224 OUT
FLAG -48 -224 IN
FLAG 1056 112 0
FLAG 128 16 0
FLAG 48 -96 0
FLAG 672 432 0
FLAG 784 192 0
SYMBOL voltage -48 -224 R0
WINDOW 123 0 0 Left 2
WINDOW 3 30 87 Left 2
SYMATTR Value 48
SYMATTR SpiceLine Rser=0
SYMATTR InstName V1
SYMBOL res 112 -224 R0
SYMATTR InstName R1
SYMATTR Value 105K
SYMATTR SpiceLine pwr=0.5
SYMBOL cap 304 -16 R90
WINDOW 0 0 32 VBottom 2
WINDOW 3 32 32 VTop 2
SYMATTR InstName C1
SYMATTR Value .01µ
SYMBOL res 288 112 M270
WINDOW 0 32 56 VTop 2
WINDOW 3 0 56 VBottom 2
SYMATTR InstName R2
SYMATTR Value 36.5K
SYMBOL nmos 896 -80 R0
WINDOW 0 1 43 Right 2
WINDOW 3 37 104 Right 2
SYMATTR InstName Q1
SYMATTR Value Si4848DY
SYMBOL res 928 96 R0
SYMATTR InstName R3
SYMATTR Value 40m
SYMBOL schottky 1200 -128 R90
WINDOW 0 0 32 VBottom 2
WINDOW 3 32 32 VTop 2
SYMATTR InstName D1
SYMATTR Value MBRS360
SYMATTR Description Diode
SYMATTR Type diode
SYMBOL ind2 1040 -224 M0
WINDOW 0 -8 35 Right 2
WINDOW 3 -6 69 Right 2
SYMATTR InstName L1
SYMATTR Value 1.5µ
SYMATTR Type ind
SYMBOL ind2 960 -112 M180
WINDOW 0 -3 77 Right 2
WINDOW 3 -1 43 Right 2
SYMATTR InstName L2
SYMATTR Value 20µ
SYMATTR Type ind
SYMBOL res 1440 -224 R0
SYMATTR InstName R4
SYMATTR Value 162K
SYMBOL res 1440 -112 R0
SYMATTR InstName R5
SYMATTR Value 22.1K
SYMBOL res 1040 192 R0
SYMATTR InstName R6
SYMATTR Value 1K
SYMBOL cap 1216 256 R90
WINDOW 0 0 32 VBottom 2
WINDOW 3 32 32 VTop 2
SYMATTR InstName C2
SYMATTR Value .05µ
SYMBOL PowerProducts\\LT4430 1344 208 R0
WINDOW 0 17 -131 Left 2
SYMATTR InstName U1
SYMBOL PowerProducts\\LT3758 464 48 R0
SYMATTR InstName U2
SYMBOL res 112 -96 R0
SYMATTR InstName R7
SYMATTR Value 8.66K
SYMBOL res 656 208 R0
SYMATTR InstName R8
SYMATTR Value 6.81K
SYMBOL cap 1232 -208 R0
WINDOW 3 42 34 Left 2
WINDOW 40 28 61 Left 2
SYMATTR Value 100µ
SYMATTR SpiceLine2 x3
SYMATTR InstName C3
SYMATTR SpiceLine Rser=.0002
SYMBOL cap 1552 -208 R0
SYMATTR InstName C4
SYMATTR Value 330p
SYMBOL cap 1040 32 R0
SYMATTR InstName C5
SYMATTR Value 1µ
SYMBOL Optos\\PC817A 896 368 M0
SYMATTR InstName U3
SYMBOL diode 896 -128 R90
WINDOW 0 0 32 VBottom 2
WINDOW 3 32 32 VTop 2
SYMATTR InstName D2
SYMATTR Value ES1D
SYMBOL res 752 -224 R0
SYMATTR InstName R9
SYMATTR Value 10K
SYMBOL cap 656 -208 R0
SYMATTR InstName C6
SYMATTR Value 4700p
SYMBOL cap 768 176 R90
WINDOW 0 0 32 VBottom 2
WINDOW 3 32 32 VTop 2
SYMATTR InstName C7
SYMATTR Value 4.7µ
SYMBOL cap 1552 256 R90
WINDOW 0 0 32 VBottom 2
WINDOW 3 32 32 VTop 2
SYMATTR InstName C8
SYMATTR Value .01µ
SYMBOL res 1584 272 R180
WINDOW 0 -6 76 Right 2
WINDOW 3 -5 32 Right 2
SYMATTR InstName R10
SYMATTR Value 6.81K
SYMBOL cap 32 -192 R0
WINDOW 3 41 34 Left 2
WINDOW 39 25 56 Left 2
SYMATTR Value 1µ
SYMATTR SpiceLine x2
SYMATTR InstName C9
SYMBOL cap 656 352 R0
SYMATTR InstName C10
SYMATTR Value 100p
SYMBOL diode 1040 -80 R0
SYMATTR InstName D3
SYMATTR Value 1N4148
SYMBOL diode 1328 -80 R0
SYMATTR InstName D4
SYMATTR Value 1N4148
SYMBOL res 1648 -224 R0
SYMATTR InstName Rload
SYMATTR Value 2.5
TEXT 1000 -224 Bottom 2 !K1 L1 L2 1
TEXT 1360 400 Left 2 !.tran 3.5ms startup
TEXT 152 456 Left 2 ;Note:\n  If the simulation model is not found please update with the "Sync Release" command from the "Tools" menu.\n  It remains the customer's responsibility to verify proper and reliable operation in the actual application.\n  Component substitution and printed circuit board layout may significantly affect circuit performance or reliability.\n  Contact your local sales representative for assistance. This circuit is distributed to customers only for use with LTC parts.\n  Copyright © 2012 Linear Technology Inc. All rights reserved.
TEXT 888 -256 Bottom 2 ;LT3758 - High Input Voltage, Boost, Flyback, SEPIC and Inverting Controller with LT4430 - Secondary-Side Optocoupler Driver\nAutomotive, Telecom & Industrial Isolated Flyback Converter\nInput: 18V to 72V   Output: 5V @ 2A, Fsw: 350kHz
