Version 4
SHEET 1 2888 1300
WIRE 736 -544 144 -544
WIRE -112 -512 -112 -528
WIRE -16 -512 -16 -528
WIRE 80 -512 80 -528
WIRE 1376 -496 176 -496
WIRE 1248 -464 272 -464
WIRE -464 -432 -560 -432
WIRE -352 -432 -464 -432
WIRE -256 -432 -352 -432
WIRE -224 -432 -256 -432
WIRE -112 -432 -112 -448
WIRE -112 -432 -144 -432
WIRE -16 -432 -16 -448
WIRE -16 -432 -112 -432
WIRE 80 -432 80 -448
WIRE 80 -432 -16 -432
WIRE 144 -432 144 -544
WIRE 144 -432 80 -432
WIRE -560 -416 -560 -432
WIRE 368 -416 368 -432
WIRE -256 -384 -256 -432
WIRE -112 -384 -256 -384
WIRE -96 -384 -112 -384
WIRE -16 -384 -32 -384
WIRE 0 -384 -16 -384
WIRE 80 -384 80 -432
WIRE -352 -352 -352 -432
WIRE 368 -336 368 -352
WIRE 368 -336 -256 -336
WIRE 464 -336 368 -336
WIRE 592 -336 464 -336
WIRE -560 -320 -560 -336
WIRE -112 -320 -112 -384
WIRE -16 -320 -16 -384
WIRE 80 -320 80 -384
WIRE 176 -320 176 -496
WIRE 272 -320 272 -464
WIRE 368 -320 368 -336
WIRE -352 -256 -352 -272
WIRE -176 -256 -352 -256
WIRE 464 -256 464 -272
WIRE 464 -256 432 -256
WIRE 912 -256 464 -256
WIRE 1056 -256 1056 -272
WIRE 1168 -256 1168 -272
WIRE -352 -240 -352 -256
WIRE -464 -208 -464 -432
WIRE -176 -160 -192 -160
WIRE 592 -160 592 -272
WIRE 592 -160 432 -160
WIRE 1056 -160 1056 -192
WIRE 1056 -160 976 -160
WIRE 1168 -160 1168 -192
WIRE 1168 -160 1056 -160
WIRE 1248 -160 1248 -464
WIRE 1248 -160 1168 -160
WIRE 1280 -160 1248 -160
WIRE 1376 -160 1376 -496
WIRE 1376 -160 1360 -160
WIRE 1424 -160 1376 -160
WIRE -352 -144 -352 -160
WIRE 592 -144 592 -160
WIRE 736 -144 736 -544
WIRE 912 -144 912 -256
WIRE 976 -144 976 -160
WIRE 1424 -144 1424 -160
WIRE -464 -112 -464 -128
WIRE -192 -112 -192 -160
WIRE -192 -112 -464 -112
WIRE -464 -96 -464 -112
WIRE -176 -64 -192 -64
WIRE 688 -64 432 -64
WIRE 1216 -64 1024 -64
WIRE 1424 -48 1424 -64
WIRE -464 0 -464 -16
WIRE -176 32 -192 32
WIRE 592 32 592 -80
WIRE 592 32 432 32
WIRE 736 32 736 -48
WIRE 736 32 592 32
WIRE 784 32 736 32
WIRE 912 32 912 -80
WIRE 912 32 864 32
WIRE 976 32 976 -48
WIRE 976 32 912 32
WIRE 1184 32 976 32
WIRE 736 48 736 32
WIRE 976 48 976 32
WIRE -256 112 -256 -336
WIRE -256 112 -352 112
WIRE -256 128 -256 112
WIRE -176 128 -192 128
WIRE 688 128 432 128
WIRE 1152 128 1024 128
WIRE -352 224 -352 112
WIRE -256 224 -256 208
WIRE -176 224 -256 224
WIRE 736 224 736 144
WIRE 736 224 432 224
WIRE 848 224 736 224
WIRE 976 224 976 144
WIRE 976 224 848 224
WIRE 848 240 848 224
WIRE -352 320 -352 304
WIRE -192 320 -352 320
WIRE -176 320 -192 320
WIRE 448 320 432 320
WIRE 848 336 848 320
WIRE -192 416 -192 320
WIRE -176 416 -192 416
WIRE 448 416 432 416
WIRE -336 512 -352 512
WIRE -256 512 -272 512
WIRE -176 512 -256 512
WIRE 1152 512 1152 128
WIRE 1152 512 432 512
WIRE -256 608 -256 512
WIRE -176 608 -256 608
WIRE 1184 608 1184 32
WIRE 1184 608 432 608
WIRE 1376 688 1376 -160
WIRE -256 704 -256 608
WIRE -176 704 -256 704
WIRE 1216 704 1216 -64
WIRE 1216 704 432 704
WIRE -256 720 -256 704
WIRE -112 784 -112 768
WIRE 48 784 48 768
WIRE 128 784 128 768
WIRE 208 784 208 768
WIRE 288 784 288 768
WIRE 368 784 368 768
WIRE 1376 784 1376 768
WIRE 1376 784 368 784
WIRE 1376 800 1376 784
WIRE -256 816 -256 800
WIRE -32 816 -32 768
WIRE -32 816 -256 816
WIRE -32 832 -32 816
WIRE 128 880 128 864
WIRE 208 880 208 848
WIRE 1376 896 1376 880
WIRE -32 912 -32 896
FLAG -112 784 0
FLAG -32 912 0
FLAG 48 784 0
FLAG 208 880 0
FLAG -560 -320 0
FLAG -352 -144 0
FLAG 368 -432 0
FLAG -464 0 0
FLAG 128 880 0
FLAG -352 512 0
FLAG 448 416 0
FLAG 848 336 0
FLAG 448 320 0
FLAG 1376 896 0
FLAG -560 -432 IN
FLAG 1424 -160 OUT
FLAG 1056 -272 0
FLAG 1168 -272 0
FLAG 1424 -48 0
FLAG -16 -528 0
FLAG -112 -528 0
FLAG 80 -528 0
SYMBOL cap -48 832 R0
SYMATTR InstName C1
SYMATTR Value 33n
SYMBOL cap 192 784 R0
WINDOW 3 38 33 Left 2
WINDOW 39 27 59 Left 2
SYMATTR Value 10n
SYMATTR SpiceLine Rser=5.1K
SYMATTR InstName C2
SYMBOL voltage -560 -432 R0
WINDOW 123 0 0 Left 2
WINDOW 39 0 0 Left 2
SYMATTR InstName V1
SYMATTR Value 24
SYMBOL res -240 -416 R270
WINDOW 0 32 56 VTop 2
WINDOW 3 0 56 VBottom 2
SYMATTR InstName R1
SYMATTR Value 3m
SYMBOL res -368 -368 R0
SYMATTR InstName R2
SYMATTR Value 499K
SYMBOL res -368 -256 R0
SYMATTR InstName R3
SYMATTR Value 56.2K
SYMBOL res -16 -368 R270
WINDOW 0 32 56 VTop 2
WINDOW 3 0 56 VBottom 2
SYMATTR InstName R4
SYMATTR Value 51
SYMBOL cap -96 -368 R270
WINDOW 0 32 32 VTop 2
WINDOW 3 0 32 VBottom 2
SYMATTR InstName C3
SYMATTR Value 470n
SYMBOL cap 352 -352 M180
WINDOW 0 24 56 Left 2
WINDOW 3 24 8 Left 2
SYMATTR InstName C4
SYMATTR Value 4.7µ
SYMBOL res -480 -224 R0
SYMATTR InstName R5
SYMATTR Value 499K
SYMBOL res -480 -112 R0
SYMATTR InstName R6
SYMATTR Value 27.4K
SYMBOL res 112 768 R0
WINDOW 3 21 90 Left 2
SYMATTR Value 147K
SYMATTR InstName R7
SYMBOL cap -272 496 R90
WINDOW 0 0 32 VBottom 2
WINDOW 3 32 32 VTop 2
SYMATTR InstName C5
SYMATTR Value .1µ
SYMBOL nmos 688 -144 R0
WINDOW 0 60 11 Left 2
WINDOW 3 56 106 Left 2
SYMATTR InstName Q1
SYMATTR Value RJK0651DPB
SYMBOL nmos 688 48 R0
WINDOW 0 55 27 Left 2
WINDOW 3 53 88 Left 2
SYMATTR InstName Q2
SYMATTR Value RJK0651DPB
SYMBOL ind 768 48 R270
WINDOW 0 32 56 VTop 2
WINDOW 3 5 56 VBottom 2
SYMATTR InstName L1
SYMATTR Value 10µ
SYMATTR SpiceLine Ipk=5 Rser=0.013 Rpar=942 Cpar=0 mfg="Coilcraft" pn="SER1360-103KX"
SYMBOL cap 576 -144 R0
SYMATTR InstName C6
SYMATTR Value .1µ
SYMBOL schottky 576 -336 R0
SYMATTR InstName D1
SYMATTR Value BAT46WJ
SYMATTR Description Diode
SYMATTR Type diode
SYMBOL cap 896 -144 R0
SYMATTR InstName C7
SYMATTR Value .1µ
SYMBOL schottky 448 -336 R0
WINDOW 0 38 21 Left 2
WINDOW 3 1 103 Left 2
SYMATTR InstName D2
SYMATTR Value BAT46WJ
SYMATTR Description Diode
SYMATTR Type diode
SYMBOL nmos 1024 -144 M0
WINDOW 0 -1 25 Right 2
WINDOW 3 42 103 Right 2
SYMATTR InstName Q3
SYMATTR Value RJK0451DPB
SYMBOL nmos 1024 48 M0
WINDOW 0 4 25 Right 2
WINDOW 3 41 108 Right 2
SYMATTR InstName Q4
SYMATTR Value RJK0451DPB
SYMBOL res 832 224 R0
SYMATTR InstName R8
SYMATTR Value 4m
SYMBOL res 1360 672 R0
SYMATTR InstName R9
SYMATTR Value 73.2K
SYMBOL res 1360 784 R0
SYMATTR InstName R10
SYMATTR Value 3.83K
SYMBOL res 1264 -144 R270
WINDOW 0 32 56 VTop 2
WINDOW 3 0 56 VBottom 2
SYMATTR InstName R11
SYMATTR Value 15m
SYMBOL cap 1040 -192 M180
WINDOW 123 24 8 Left 2
WINDOW 3 38 30 Left 2
WINDOW 0 24 56 Left 2
SYMATTR Value2 x2
SYMATTR Value 4.7µ
SYMATTR InstName C8
SYMATTR SpiceLine V=50 Rser=0.004 mfg="TDK" pn="C575OX7RIH475M" type="X7R"
SYMBOL PowerProducts\\LT3791-1 128 224 R0
SYMATTR InstName U1
SYMBOL polcap 1152 -192 M180
WINDOW 123 24 -13 Left 2
WINDOW 3 24 8 Left 2
WINDOW 0 24 57 Left 2
SYMATTR Value 220µ
SYMATTR InstName C9
SYMATTR Description Capacitor
SYMATTR Type cap
SYMATTR SpiceLine V=35 Rser=0.09
SYMBOL res -272 112 R0
SYMATTR InstName R12
SYMATTR Value 200K
SYMBOL res -368 208 R0
SYMATTR InstName R13
SYMATTR Value 100K
SYMBOL res -272 704 R0
SYMATTR InstName R14
SYMATTR Value 100K
SYMBOL res 1408 -160 R0
SYMATTR InstName Rload
SYMATTR Value 4.8
SYMBOL polcap -32 -448 M180
WINDOW 123 24 -13 Left 2
WINDOW 3 24 8 Left 2
WINDOW 0 24 57 Left 2
SYMATTR Value 47µ
SYMATTR InstName C11
SYMATTR Description Capacitor
SYMATTR Type cap
SYMATTR SpiceLine V=80 Rser=0.37
SYMBOL cap -128 -448 M180
WINDOW 0 24 56 Left 2
WINDOW 3 24 8 Left 2
SYMATTR InstName C12
SYMATTR Value 4.7µ
SYMATTR SpiceLine V=100 Rser=0.004
SYMBOL cap 64 -448 M180
WINDOW 0 24 56 Left 2
WINDOW 3 24 8 Left 2
SYMATTR InstName C10
SYMATTR Value 1µ
TEXT 1008 840 Left 2 !.tran 1.5m startup
TEXT 320 -568 Bottom 2 ;LT3791-1 - 60V 4-Switch Synchronous Buck-Boost Controller\n120W Buck-Boost Voltage Regulator\nInput: 12V to 58V     Output: 24V @ 5A Fsw = 200kHz
TEXT -168 928 Left 2 ;Note:\n  If the simulation model is not found please update with the "Sync Release" command from the "Tools" menu.\n  It remains the customer's responsibility to verify proper and reliable operation in the actual application.\n  Component substitution and printed circuit board layout may significantly affect circuit performance or reliability.\n  Contact your local sales representative for assistance. This circuit is distributed to customers only for use with LTC parts.\n  Copyright © 2012 Linear Technology Inc. All rights reserved.
