Version 4
SHEET 1 3316 860
WIRE 1360 -128 1280 -128
WIRE 1456 -128 1360 -128
WIRE 1856 -128 1456 -128
WIRE 2032 -128 1856 -128
WIRE 2144 -128 2112 -128
WIRE 2176 -128 2144 -128
WIRE 2272 -128 2240 -128
WIRE 2336 -128 2272 -128
WIRE 2432 -128 2400 -128
WIRE 2496 -128 2432 -128
WIRE 2592 -128 2496 -128
WIRE 2672 -128 2592 -128
WIRE 1456 -112 1456 -128
WIRE 2672 -112 2672 -128
WIRE 1360 -96 1360 -128
WIRE 2496 -96 2496 -128
WIRE 2592 -96 2592 -128
WIRE 1856 -80 1856 -128
WIRE 2272 -80 2272 -128
WIRE 1360 -16 1360 -32
WIRE 1456 -16 1456 -32
WIRE 1696 -16 1456 -16
WIRE 2032 -16 2016 -16
WIRE 2496 -16 2496 -32
WIRE 2592 -16 2592 -32
WIRE 2672 -16 2672 -32
WIRE 1456 0 1456 -16
WIRE 2144 0 2144 -128
WIRE 2272 16 2272 0
WIRE 1600 80 1568 80
WIRE 1696 80 1664 80
WIRE 2096 80 2016 80
WIRE 1456 96 1456 80
WIRE 2144 112 2144 96
WIRE 2144 112 2080 112
WIRE 2144 128 2144 112
WIRE 2432 144 2432 -128
WIRE 1600 176 1568 176
WIRE 1696 176 1680 176
WIRE 2080 176 2080 112
WIRE 2080 176 2016 176
WIRE 2144 224 2144 208
WIRE 1520 272 1504 272
WIRE 1600 272 1584 272
WIRE 1696 272 1680 272
WIRE 2432 272 2432 224
WIRE 2432 272 2016 272
WIRE 1280 288 1280 -128
WIRE 2432 288 2432 272
WIRE 1856 352 1856 336
WIRE 1280 384 1280 368
WIRE 2432 384 2432 368
FLAG 1568 176 0
FLAG 2432 384 0
FLAG 1856 352 0
FLAG 2496 -16 0
FLAG 1504 272 0
FLAG 2672 -16 0
FLAG 1280 384 0
FLAG 1568 80 0
FLAG 2096 -16 0
FLAG 2672 -128 OUT
FLAG 1280 -128 IN
FLAG 1456 96 0
FLAG 2144 224 0
FLAG 1360 -16 0
FLAG 2272 16 0
FLAG 2592 -16 0
SYMBOL PowerProducts\\LT3757 1856 128 R0
SYMATTR InstName U1
SYMBOL NMOS 2096 0 R0
SYMATTR InstName Q1
SYMATTR Value FDS6680A
SYMBOL RES 1696 192 M270
WINDOW 0 32 56 VTop 0
WINDOW 3 0 56 VBottom 0
SYMATTR InstName R1
SYMATTR Value 41.2K
SYMBOL res 2416 272 R0
SYMATTR InstName R2
SYMATTR Value 15.8K
SYMBOL res 2416 128 R0
SYMATTR InstName R3
SYMATTR Value 105K
SYMBOL ind2 2016 -112 R270
WINDOW 0 32 56 VTop 0
WINDOW 3 5 56 VBottom 0
SYMATTR InstName L1
SYMATTR Value 2.83µ
SYMATTR Type ind
SYMBOL schottky 2336 -112 R270
WINDOW 0 32 32 VTop 0
WINDOW 3 0 32 VBottom 0
SYMATTR InstName D1
SYMATTR Value MBR735
SYMBOL polcap 2480 -96 R0
WINDOW 40 27 64 Left 0
WINDOW 3 40 36 Left 0
SYMATTR SpiceLine2 x2
SYMATTR Value 47µ
SYMATTR InstName C1
SYMATTR SpiceLine Rser=.1
SYMBOL res 1696 288 M270
WINDOW 0 32 56 VTop 0
WINDOW 3 0 56 VBottom 0
SYMATTR InstName R4
SYMATTR Value 10K
SYMBOL cap 1584 288 M270
WINDOW 0 32 32 VTop 0
WINDOW 3 0 32 VBottom 0
SYMATTR InstName C2
SYMATTR Value 6800p
SYMBOL VOLTAGE 1280 272 R0
WINDOW 123 24 146 Left 0
WINDOW 39 24 125 Left 0
SYMATTR Value PWL(0 0 20u 12 1.4m 12 1.6m 36 1.8m 5.5)
SYMATTR InstName V1
SYMBOL polcap 2032 -32 M90
WINDOW 0 0 32 VBottom 0
WINDOW 3 32 32 VTop 0
SYMATTR InstName C3
SYMATTR Value 4.7µ
SYMBOL cap 1664 64 R90
WINDOW 0 0 32 VBottom 0
WINDOW 3 32 32 VTop 0
SYMATTR InstName C4
SYMATTR Value .02µ
SYMBOL res 1440 -16 R0
SYMATTR InstName R5
SYMATTR Value 46.4K
SYMBOL res 1440 -128 R0
SYMATTR InstName R6
SYMATTR Value 105K
SYMBOL res 2128 112 R0
SYMATTR InstName R7
SYMATTR Value .008
SYMBOL cap 1344 -96 R0
WINDOW 0 27 3 Left 0
WINDOW 3 42 34 Left 0
WINDOW 39 29 60 Left 0
SYMATTR InstName C5
SYMATTR Value 4.7µ
SYMATTR SpiceLine x2
SYMBOL cap 2240 -144 R90
WINDOW 0 0 32 VBottom 0
WINDOW 3 32 32 VTop 0
WINDOW 123 85 35 VBottom 0
SYMATTR InstName C6
SYMATTR Value 4.7µ
SYMATTR Value2 x2
SYMATTR SpiceLine V=50 Irms=0 Rser=0.004 Lser=0 mfg="TDK" pn="C575OX7RIH475M" type="X7R"
SYMBOL ind2 2256 16 M180
WINDOW 0 36 80 Left 0
WINDOW 3 36 40 Left 0
SYMATTR InstName L2
SYMATTR Value 2.83µ
SYMATTR Type ind
SYMBOL cap 2576 -96 R0
SYMATTR InstName C7
SYMATTR Value 10µ
SYMATTR SpiceLine Rser=0.001
SYMBOL res 2656 -128 R0
SYMATTR InstName Rload
SYMATTR Value 6
TEXT 2544 368 Left 0 !.tran 3m startup
TEXT 2040 -208 Bottom 0 ;LT3757 - Boost, Flyback, SEPIC and Inverting Controller\n5.5V to 36V Input, 12V/2A Output SEPIC Converter\nInput: 5.5V to 36V     Output: 12V at 2A, fsw = 300kHz
TEXT 1408 424 Left 0 ;Note:\n  If the simulation model is not found please update with the "Sync Release" command from the "Tools" menu.\n  It remains the customer's responsibility to verify proper and reliable operation in the actual application.\n  Component substitution and printed circuit board layout may significantly affect circuit performance or reliability\n  Contact your local sales representative for assistance. This circuit is distributed to customers only for use with LTC parts\n  Copyright © 2011 Linear Technology Inc. All rights reserved.
TEXT 2152 -184 Left 0 !K1 L1 L2 1
