Version 4
SHEET 1 1296 1332
WIRE -304 -176 -432 -176
WIRE -192 -176 -304 -176
WIRE 240 -176 -192 -176
WIRE 384 -176 240 -176
WIRE 608 -176 464 -176
WIRE 656 -176 608 -176
WIRE 752 -176 720 -176
WIRE 848 -176 752 -176
WIRE 976 -176 848 -176
WIRE 848 -160 848 -176
WIRE -432 -144 -432 -176
WIRE -304 -144 -304 -176
WIRE -192 -112 -192 -176
WIRE 432 -112 -16 -112
WIRE -16 -96 -16 -112
WIRE 848 -80 848 -96
WIRE 240 -64 240 -176
WIRE -432 -48 -432 -64
WIRE -304 -48 -304 -80
WIRE 608 -16 608 -176
WIRE -192 0 -192 -32
WIRE 64 0 -192 0
WIRE 432 0 432 -112
WIRE 432 0 416 0
WIRE 448 0 432 0
WIRE 528 0 512 0
WIRE -192 16 -192 0
WIRE -16 64 -16 -16
WIRE 64 64 -16 64
WIRE 560 64 416 64
WIRE 752 64 752 -176
WIRE 976 96 976 -176
WIRE 976 96 880 96
WIRE -192 112 -192 96
WIRE 976 112 976 96
WIRE -64 128 -96 128
WIRE 64 128 16 128
WIRE 608 128 608 80
WIRE 608 128 416 128
WIRE 608 144 608 128
WIRE 752 160 752 144
WIRE 752 160 704 160
WIRE 752 176 752 160
WIRE -256 192 -320 192
WIRE -96 192 -96 128
WIRE -96 192 -176 192
WIRE 64 192 -96 192
WIRE 976 208 976 192
WIRE 976 208 912 208
WIRE -144 256 -160 256
WIRE 64 256 -80 256
WIRE 704 256 704 160
WIRE 704 256 416 256
WIRE 976 256 976 208
WIRE 752 272 752 256
WIRE -16 320 -32 320
WIRE 64 320 48 320
WIRE 880 320 880 96
WIRE 880 320 416 320
WIRE 976 368 976 320
WIRE -112 384 -144 384
WIRE 64 384 -32 384
WIRE 912 384 912 208
WIRE 912 384 416 384
WIRE -240 448 -256 448
WIRE 64 448 -160 448
WIRE 928 448 416 448
WIRE 976 480 976 464
WIRE 240 528 240 512
FLAG 528 0 0
FLAG 608 224 0
FLAG 752 272 0
FLAG 848 -80 0
FLAG -432 -48 0
FLAG -192 112 0
FLAG -160 256 0
FLAG 976 480 0
FLAG -32 320 0
FLAG -144 384 0
FLAG 240 528 0
FLAG -256 448 0
FLAG -432 -176 IN
FLAG -320 192 0
FLAG -304 -48 0
SYMBOL cap 448 16 R270
WINDOW 0 32 32 VTop 0
WINDOW 3 0 32 VBottom 0
SYMATTR InstName C1
SYMATTR Value 4.7µ
SYMBOL nmos 560 -16 R0
SYMATTR InstName Q1
SYMATTR Value Si7850DP
SYMBOL res 592 128 R0
SYMATTR InstName R1
SYMATTR Value .018
SYMBOL ind 368 -160 R270
WINDOW 0 32 56 VTop 0
WINDOW 3 5 56 VBottom 0
SYMATTR InstName L1
SYMATTR Value 22µ
SYMATTR SpiceLine Rpar=2K
SYMBOL res 736 48 R0
SYMATTR InstName R2
SYMATTR Value 1Meg
SYMBOL res 736 160 R0
SYMATTR InstName R3
SYMATTR Value 14K
SYMBOL schottky 656 -160 R270
WINDOW 0 32 32 VTop 0
WINDOW 3 0 32 VBottom 0
SYMATTR InstName D1
SYMATTR Value MBRS360
SYMATTR Description Diode
SYMATTR Type diode
SYMBOL res 960 96 R0
SYMATTR InstName R4
SYMATTR Value .27
SYMBOL cap 832 -160 R0
SYMATTR InstName C2
SYMATTR Value 4.7µ
SYMATTR SpiceLine Rser=3m
SYMBOL voltage -432 -160 R0
WINDOW 3 27 90 Left 0
WINDOW 123 0 0 Left 0
WINDOW 39 0 0 Left 0
SYMATTR Value 14
SYMATTR InstName V1
SYMBOL res -208 -128 R0
SYMATTR InstName R5
SYMATTR Value 1Meg
SYMBOL res -208 0 R0
SYMATTR InstName R6
SYMATTR Value 185K
SYMBOL cap -80 240 R90
WINDOW 0 0 32 VBottom 0
WINDOW 3 29 32 VTop 0
WINDOW 39 51 32 VTop 0
SYMATTR InstName C3
SYMATTR Value 1000p
SYMATTR SpiceLine Rser=10K
SYMBOL nmos 928 368 R0
SYMATTR InstName Q2
SYMATTR Value Si7850DP
SYMBOL LED 960 256 R0
WINDOW 3 29 67 Left 0
WINDOW 123 23 95 Left 0
SYMATTR Value LXK2-PW14
SYMATTR Value2 N=18
SYMATTR InstName D2
SYMATTR Description Diode
SYMATTR Type diode
SYMBOL cap 48 304 R90
WINDOW 0 0 32 VBottom 0
WINDOW 3 32 32 VTop 0
SYMATTR InstName C4
SYMATTR Value .01µ
SYMBOL res -16 368 R90
WINDOW 0 0 56 VBottom 0
WINDOW 3 32 56 VTop 0
SYMATTR InstName R7
SYMATTR Value 28.7K
SYMBOL voltage -144 448 R90
WINDOW 0 -32 56 VBottom 0
WINDOW 3 32 56 VTop 0
WINDOW 123 0 0 Left 0
WINDOW 39 0 0 Left 0
SYMATTR InstName V2
SYMATTR Value PULSE(3.3 0 2.5m 1u 1u 125u 250u)
SYMBOL PowerProducts\\LT3756-2 240 224 R0
SYMATTR InstName U1
SYMBOL res -32 -112 R0
SYMATTR InstName R8
SYMATTR Value 100K
SYMBOL res 32 112 R90
WINDOW 0 0 56 VBottom 0
WINDOW 3 32 56 VTop 0
SYMATTR InstName R9
SYMATTR Value 16.9K
SYMBOL res -272 208 R270
WINDOW 0 32 56 VTop 0
WINDOW 3 0 56 VBottom 0
SYMATTR InstName R10
SYMATTR Value 100K
SYMBOL cap -320 -144 R0
SYMATTR InstName C5
SYMATTR Value 4.7µ
TEXT 712 520 Left 0 !.tran 4m startup
TEXT -176 176 Left 0 ;NTC
TEXT -360 568 Left 0 ;Note:\n  If the simulation model is not found please update with the "Sync Release" command from the "Tools" menu.\n  It remains the customer's responsibility to verify proper and reliable operation in the actual application.\n  Component substitution and printed circuit board layout may significantly affect circuit performance or reliability.\n  Contact your local sales representative for assistance. This circuit is distributed to customers only for use with LTC parts.\n  Copyright © 2011 Linear Technology Inc. All rights reserved.
TEXT 320 -224 Bottom 0 ;LT3756-2 - 100VIN, 100VOUT LED Controller\n30W White LED Automotive Headlamp Driver with Thermal Derating (Vin 8V to 60V, 100V transient)
CIRCLE Normal -112 240 -304 144 2
