Version 4
SHEET 1 3544 1012
WIRE -336 -192 -336 -208
WIRE -336 -80 -336 -112
WIRE -240 -208 -336 -208
WIRE -240 240 -240 -208
WIRE -240 384 -240 320
WIRE -240 400 -240 384
WIRE -240 496 -240 480
WIRE -144 -208 -240 -208
WIRE -144 -192 -144 -208
WIRE -144 -96 -144 -112
WIRE -144 0 -144 -96
WIRE -144 144 -144 96
WIRE -144 160 -144 144
WIRE -144 256 -144 240
WIRE -144 320 -144 256
WIRE -144 336 -144 320
WIRE -128 496 -128 480
WIRE -128 592 -128 576
WIRE -112 688 -112 672
WIRE -112 784 -112 768
WIRE -32 480 -128 480
WIRE -32 576 -32 480
WIRE -16 80 -96 80
WIRE -16 144 -144 144
WIRE -16 256 -144 256
WIRE -16 320 -144 320
WIRE -16 384 -240 384
WIRE -16 480 -32 480
WIRE -16 576 -32 576
WIRE -16 672 -112 672
WIRE 48 -208 -144 -208
WIRE 48 16 48 -208
WIRE 144 16 144 0
WIRE 192 752 192 736
WIRE 240 0 144 0
WIRE 240 16 240 0
WIRE 336 0 240 0
WIRE 336 16 336 0
WIRE 352 -96 -144 -96
WIRE 416 80 400 80
WIRE 416 672 400 672
WIRE 464 -208 48 -208
WIRE 464 -192 464 -208
WIRE 464 -32 464 -112
WIRE 464 0 464 -32
WIRE 464 144 400 144
WIRE 464 144 464 96
WIRE 464 160 464 144
WIRE 464 256 400 256
WIRE 464 256 464 240
WIRE 464 320 400 320
WIRE 464 320 464 256
WIRE 464 336 464 320
WIRE 464 576 400 576
WIRE 464 592 464 576
WIRE 464 672 464 656
WIRE 512 -32 464 -32
WIRE 528 480 400 480
WIRE 528 496 528 480
WIRE 528 576 528 560
WIRE 560 480 528 480
WIRE 576 384 400 384
WIRE 576 384 576 288
WIRE 624 -96 416 -96
WIRE 624 -64 624 -96
WIRE 624 -32 576 -32
WIRE 624 -32 624 -64
WIRE 656 -64 624 -64
WIRE 656 192 656 -64
WIRE 656 288 576 288
WIRE 656 288 656 272
WIRE 656 304 656 288
WIRE 656 400 656 384
WIRE 672 480 640 480
WIRE 672 496 672 480
WIRE 672 576 672 560
WIRE 704 -64 656 -64
WIRE 704 -16 704 -64
WIRE 704 96 704 48
WIRE 784 -64 704 -64
WIRE 784 -16 784 -64
WIRE 784 96 784 48
WIRE 880 -64 784 -64
WIRE 880 -16 880 -64
WIRE 880 96 880 64
FLAG 192 752 0
FLAG -128 592 0
FLAG -112 784 0
FLAG 656 400 0
FLAG 464 672 0
FLAG 672 576 0
FLAG -240 496 0
FLAG -336 -80 0
FLAG 704 96 0
FLAG 880 96 0
FLAG -144 336 0
FLAG 464 336 0
FLAG 240 -64 0
FLAG 880 -64 OUT
FLAG 528 576 0
FLAG 784 96 0
FLAG -336 -208 IN
SYMBOL PowerProducts\\LT3782 192 272 R0
SYMATTR InstName U1
SYMBOL nmos 416 0 R0
SYMATTR InstName Q1
SYMATTR Value Si4840DY
SYMBOL ind 448 -208 R0
SYMATTR InstName L1
SYMATTR Value 10µ
SYMATTR SpiceLine Ipk=5.4 Rser=0.0156 Rpar=0 Cpar=0 mfg="TDK" pn="SLF12575T-100M5R4"
SYMBOL schottky 512 -16 R270
WINDOW 0 32 32 VTop 0
WINDOW 3 0 32 VBottom 0
SYMATTR InstName D1
SYMATTR Value MBR735
SYMATTR Description Diode
SYMATTR Type diode
SYMBOL nmos -96 0 M0
WINDOW 0 38 -9 Right 0
WINDOW 3 40 106 Right 0
SYMATTR InstName Q2
SYMATTR Value Si4840DY
SYMBOL schottky 352 -112 M90
WINDOW 0 0 32 VBottom 0
WINDOW 3 32 32 VTop 0
SYMATTR InstName D2
SYMATTR Value MBR735
SYMATTR Description Diode
SYMATTR Type diode
SYMBOL res -144 480 R0
SYMATTR InstName R1
SYMATTR Value 61.9K
SYMBOL res -128 672 R0
SYMATTR InstName R2
SYMATTR Value 100K
SYMBOL res 640 176 R0
SYMATTR InstName R3
SYMATTR Value 475K
SYMBOL res 640 288 R0
SYMATTR InstName R4
SYMATTR Value 53.6K
SYMBOL ind -160 -208 R0
SYMATTR InstName L2
SYMATTR Value 10µ
SYMATTR SpiceLine Ipk=5.4 Rser=0.0156 Rpar=0 Cpar=0 mfg="TDK" pn="SLF12575T-100M5R4"
SYMBOL cap 448 592 R0
SYMATTR InstName C1
SYMATTR Value .002µ
SYMBOL cap 656 496 R0
SYMATTR InstName C2
SYMATTR Value .022µ
SYMBOL res 544 496 R270
WINDOW 0 32 56 VTop 0
WINDOW 3 0 56 VBottom 0
SYMATTR InstName R5
SYMATTR Value 14K
SYMBOL res -256 224 R0
SYMATTR InstName R6
SYMATTR Value 825K
SYMBOL res -256 384 R0
SYMATTR InstName R7
SYMATTR Value 274K
SYMBOL voltage -336 -208 R0
WINDOW 123 0 0 Left 0
WINDOW 39 0 0 Left 0
SYMATTR InstName V1
SYMATTR Value 10
SYMBOL res -160 144 R0
SYMATTR InstName R8
SYMATTR Value 12m
SYMBOL res 448 144 R0
SYMATTR InstName R9
SYMATTR Value 12m
SYMBOL cap 224 -64 R0
WINDOW 0 38 17 Left 0
WINDOW 3 38 46 Left 0
SYMATTR InstName C3
SYMATTR Value 1µ
SYMBOL cap 512 496 R0
SYMATTR InstName C4
SYMATTR Value 47p
SYMBOL cap 688 -16 R0
SYMATTR InstName C5
SYMATTR Value 100µ
SYMATTR SpiceLine Rser=0.05
SYMBOL LOAD2 880 -16 R0
WINDOW 123 0 0 Left 0
SYMATTR InstName I1
SYMATTR Value 2
SYMATTR SpiceLine load
SYMBOL cap 768 -16 R0
SYMATTR InstName C6
SYMATTR Value 4.7µ
SYMATTR SpiceLine Rser=0.003
TEXT 784 176 Left 0 !.tran 2.5m startup
TEXT 256 -264 Center 0 ;LT3782, Two Phase Boost DC/DC Converter\nInput: Vin 10V to14V      Output: 24V @ 2.0A
TEXT -352 792 Left 0 ;Note:\n  If the simulation model is not found please update with the "Sync Release" command from the "Tools" menu.\n  It remains the customer's responsibility to verify proper and reliable operation in the actual application.\n  Component substitution and printed circuit board layout may significantly affect circuit performance or reliability\n  Contact your local sales representative for assistance. This circuit is distributed to customers only for use with LTC parts\n  Copyright © 2006 Linear Technology Inc. All rights reserved.
