Version 4
SHEET 1 3344 680
WIRE 1424 -128 1312 -128
WIRE 1520 -128 1424 -128
WIRE 1856 -128 1520 -128
WIRE 2016 -128 1856 -128
WIRE 2144 -128 2096 -128
WIRE 2176 -128 2144 -128
WIRE 2272 -128 2240 -128
WIRE 2336 -128 2272 -128
WIRE 2464 -128 2416 -128
WIRE 2512 -128 2464 -128
WIRE 2624 -128 2512 -128
WIRE 1312 -112 1312 -128
WIRE 1520 -112 1520 -128
WIRE 2624 -112 2624 -128
WIRE 1424 -96 1424 -128
WIRE 2272 -96 2272 -128
WIRE 2512 -96 2512 -128
WIRE 1856 -80 1856 -128
WIRE 1312 -16 1312 -32
WIRE 1424 -16 1424 -32
WIRE 1520 -16 1520 -32
WIRE 1696 -16 1520 -16
WIRE 2272 -16 2272 -32
WIRE 2512 -16 2512 -32
WIRE 2624 -16 2624 -32
WIRE 1520 0 1520 -16
WIRE 2144 0 2144 -128
WIRE 2096 80 2016 80
WIRE 1520 96 1520 80
WIRE 1600 176 1584 176
WIRE 1696 176 1680 176
WIRE 2144 176 2144 96
WIRE 2144 176 2016 176
WIRE 2160 176 2144 176
WIRE 2256 176 2240 176
WIRE 2464 176 2464 -128
WIRE 1520 272 1504 272
WIRE 1600 272 1584 272
WIRE 1696 272 1680 272
WIRE 2464 272 2464 256
WIRE 2464 272 2016 272
WIRE 2464 288 2464 272
WIRE 1856 352 1856 336
WIRE 2464 384 2464 368
FLAG 1584 176 0
FLAG 2464 384 0
FLAG 1856 352 0
FLAG 2512 -16 0
FLAG 1504 272 0
FLAG 2624 -16 0
FLAG 1312 -16 0
FLAG 1632 80 0
FLAG 2080 -16 0
FLAG 2624 -128 OUT
FLAG 1312 -128 IN
FLAG 1520 96 0
FLAG 2256 176 0
FLAG 2272 -16 0
FLAG 1424 -16 0
SYMBOL PowerProducts\\LT3757 1856 128 R0
SYMATTR InstName U1
SYMBOL NMOS 2096 0 R0
SYMATTR InstName Q1
SYMATTR Value Si7850DP
SYMBOL res 2448 272 R0
SYMATTR InstName R1
SYMATTR Value 16K
SYMBOL res 2448 160 R0
SYMATTR InstName R2
SYMATTR Value 84.5K
SYMBOL ind2 2112 -112 M270
WINDOW 0 32 56 VTop 2
WINDOW 3 5 56 VBottom 2
SYMATTR InstName L1
SYMATTR Value 3.3µ
SYMATTR SpiceLine Rser=0.1
SYMATTR Type ind
SYMBOL schottky 2256 -96 R0
SYMATTR InstName D1
SYMATTR Value MBRB2545CT
SYMBOL cap 1584 288 M270
WINDOW 0 32 32 VTop 2
WINDOW 3 0 32 VBottom 2
SYMATTR InstName C1
SYMATTR Value .01µ
SYMBOL VOLTAGE 1312 -128 R0
WINDOW 123 0 0 Left 2
WINDOW 39 0 0 Left 2
SYMATTR InstName V1
SYMATTR Value 12
SYMBOL cap 1696 64 R90
WINDOW 0 0 32 VBottom 2
WINDOW 3 32 32 VTop 2
SYMATTR InstName C2
SYMATTR Value .01µ
SYMBOL res 1504 -16 R0
SYMATTR InstName R3
SYMATTR Value 46.4K
SYMBOL res 1504 -128 R0
SYMATTR InstName R4
SYMATTR Value 105K
SYMBOL res 2144 192 R270
WINDOW 0 32 56 VTop 2
WINDOW 3 0 56 VBottom 2
SYMATTR InstName R5
SYMATTR Value 6m
SYMBOL ind2 2320 -112 R270
WINDOW 0 32 56 VTop 2
WINDOW 3 5 56 VBottom 2
SYMATTR InstName L2
SYMATTR Value 3.3µ
SYMATTR SpiceLine Rser=0.1
SYMATTR Type ind
SYMBOL cap 2240 -144 R90
WINDOW 0 0 32 VBottom 2
WINDOW 3 32 32 VTop 2
SYMATTR InstName C3
SYMATTR Value 47µ
SYMATTR SpiceLine Rser=0.003
SYMBOL cap 2496 -96 R0
WINDOW 3 38 32 Left 2
WINDOW 40 29 60 Left 2
SYMATTR Value 100µ
SYMATTR SpiceLine2 x2
SYMATTR InstName C4
SYMATTR SpiceLine Rser=.002
SYMBOL cap 2080 -32 R90
WINDOW 0 0 32 VBottom 2
WINDOW 3 32 32 VTop 2
SYMATTR InstName C5
SYMATTR Value 4.7µ
SYMBOL cap 1408 -96 R0
SYMATTR InstName C6
SYMATTR Value 47µ
SYMBOL res 1696 160 R90
WINDOW 0 0 56 VBottom 2
WINDOW 3 32 56 VTop 2
SYMATTR InstName R6
SYMATTR Value 41.2K
SYMBOL res 1696 256 R90
WINDOW 0 0 56 VBottom 2
WINDOW 3 32 56 VTop 2
SYMATTR InstName R7
SYMATTR Value 9.1K
SYMBOL res 2608 -128 R0
SYMATTR InstName Rload
SYMATTR Value 1.25
TEXT 2136 352 Left 2 !.tran 2.5m startup
TEXT 1960 -216 Bottom 2 ;LT3757 - Boost, Flyback, SEPIC and Inverting Controller\nHigh Efficiency Inverting  (CUK) Power Supply\nInput: 5V to 15V       Output: -5V @ 3A to 5A, Fsw: 300kHz
TEXT 2216 -176 Bottom 2 !K1 L1 L2 1
TEXT 1248 392 Left 2 ;Note:\n  If the simulation model is not found please update with the "Sync Release" command from the "Tools" menu.\n  It remains the customer's responsibility to verify proper and reliable operation in the actual application.\n  Component substitution and printed circuit board layout may significantly affect circuit performance or reliability.\n  Contact your local sales representative for assistance. This circuit is distributed to customers only for use with LTC parts.\n  Copyright © 2012 Linear Technology Inc. All rights reserved.
