Version 4
SHEET 1 1928 1304
WIRE -3136 -272 -3232 -272
WIRE -2624 -272 -3136 -272
WIRE -2192 -272 -2624 -272
WIRE -1504 -272 -2192 -272
WIRE -3232 -256 -3232 -272
WIRE -2624 -256 -2624 -272
WIRE -2192 -240 -2192 -272
WIRE -512 -224 -1184 -224
WIRE -448 -224 -512 -224
WIRE -304 -224 -368 -224
WIRE -192 -224 -304 -224
WIRE -112 -224 -192 -224
WIRE -48 -224 -112 -224
WIRE -1504 -208 -1504 -272
WIRE -1376 -208 -1504 -208
WIRE -1184 -208 -1184 -224
WIRE -1184 -208 -1312 -208
WIRE -304 -208 -304 -224
WIRE -192 -208 -192 -224
WIRE -48 -208 -48 -224
WIRE -3232 -160 -3232 -176
WIRE -2992 -160 -3072 -160
WIRE -2880 -160 -2928 -160
WIRE -2800 -160 -2880 -160
WIRE -2736 -160 -2800 -160
WIRE -2624 -160 -2624 -192
WIRE -3072 -144 -3072 -160
WIRE -2880 -144 -2880 -160
WIRE -2736 -144 -2736 -160
WIRE -2192 -128 -2192 -160
WIRE -1376 -128 -1504 -128
WIRE -1184 -128 -1312 -128
WIRE -304 -112 -304 -144
WIRE -192 -112 -192 -144
WIRE -48 -112 -48 -128
WIRE -1184 -96 -1184 -128
WIRE -512 -96 -512 -224
WIRE -480 -96 -512 -96
WIRE -480 -80 -480 -96
WIRE -2880 -64 -2880 -80
WIRE -3072 -48 -3072 -64
WIRE -2736 -48 -2736 -64
WIRE -2448 -48 -2736 -48
WIRE -2128 -48 -2144 -48
WIRE -2736 -32 -2736 -48
WIRE -2336 -32 -2352 -32
WIRE -2224 -32 -2256 -32
WIRE -2192 -32 -2224 -32
WIRE -1584 -32 -1648 -32
WIRE -1504 -32 -1504 -128
WIRE -1504 -32 -1520 -32
WIRE -2224 -16 -2224 -32
WIRE -1648 -16 -1648 -32
WIRE -800 -16 -1136 -16
WIRE -416 0 -432 0
WIRE -2544 16 -2544 0
WIRE -1184 16 -1184 0
WIRE -480 32 -480 16
WIRE -1904 64 -2064 64
WIRE -1760 64 -1904 64
WIRE -1696 64 -1760 64
WIRE -2736 80 -2736 48
WIRE -2224 80 -2224 64
WIRE -2064 80 -2064 64
WIRE -1760 80 -1760 64
WIRE -512 80 -512 -96
WIRE -320 80 -320 64
WIRE -1904 96 -1904 64
WIRE -1648 96 -1648 80
WIRE -2544 112 -2544 96
WIRE -2128 128 -2128 -48
WIRE -2128 128 -2256 128
WIRE -112 144 -112 -224
WIRE -112 144 -208 144
WIRE -208 160 -208 144
WIRE -112 160 -112 144
WIRE -1904 176 -1904 160
WIRE -1760 176 -1760 160
WIRE -1504 176 -1504 -32
WIRE -800 176 -800 -16
WIRE -704 176 -704 160
WIRE -608 176 -608 160
WIRE -512 176 -512 160
WIRE -416 176 -416 0
WIRE -320 176 -320 160
WIRE -2544 192 -2544 176
WIRE -2448 192 -2448 -48
WIRE -2352 192 -2352 -32
WIRE -2256 192 -2256 128
WIRE -2160 192 -2160 176
WIRE -2064 192 -2064 144
WIRE -2880 256 -2896 256
WIRE -2800 256 -2800 -160
WIRE -2800 256 -2816 256
WIRE -2656 256 -2800 256
WIRE -1552 256 -1952 256
WIRE -1136 256 -1232 256
WIRE -992 256 -1072 256
WIRE -880 256 -992 256
WIRE -864 256 -880 256
WIRE -208 256 -208 224
WIRE -208 256 -256 256
WIRE -112 256 -112 240
WIRE -112 256 -208 256
WIRE -1232 272 -1232 256
WIRE -992 272 -992 256
WIRE -112 272 -112 256
WIRE -3136 352 -3136 -272
WIRE -2656 352 -3136 352
WIRE -1696 352 -1952 352
WIRE -880 352 -880 256
WIRE -864 352 -880 352
WIRE -3136 368 -3136 352
WIRE -1232 368 -1232 352
WIRE -992 368 -992 336
WIRE -112 368 -112 352
WIRE -1792 400 -1808 400
WIRE -1696 400 -1696 352
WIRE -1696 400 -1712 400
WIRE -1680 400 -1696 400
WIRE -1568 400 -1600 400
WIRE -2656 448 -3136 448
WIRE -1920 448 -1952 448
WIRE -1568 448 -1568 400
WIRE -1568 448 -1840 448
WIRE -1504 448 -1504 272
WIRE -1504 448 -1568 448
WIRE -864 448 -896 448
WIRE -240 448 -256 448
WIRE -3136 464 -3136 448
WIRE -1504 464 -1504 448
WIRE -880 528 -880 352
WIRE -704 528 -704 512
WIRE -704 528 -880 528
WIRE -512 528 -512 512
WIRE -416 528 -416 512
WIRE -2656 544 -3136 544
WIRE -1504 544 -1952 544
WIRE -1392 544 -1408 544
WIRE -1312 544 -1328 544
WIRE -1280 544 -1312 544
WIRE -1056 544 -1088 544
WIRE -800 544 -800 512
WIRE -800 544 -976 544
WIRE -608 544 -608 512
WIRE -3136 560 -3136 544
WIRE -1504 560 -1504 544
WIRE -416 608 -416 592
WIRE -608 624 -608 608
WIRE -512 624 -512 608
WIRE -2736 640 -2752 640
WIRE -2656 640 -2672 640
WIRE -1920 640 -1952 640
WIRE -1824 640 -1840 640
WIRE -1808 640 -1824 640
WIRE -1712 640 -1728 640
WIRE -1280 640 -1712 640
WIRE -1072 640 -1088 640
WIRE -3136 656 -3136 640
WIRE -1712 656 -1712 640
WIRE -416 704 -416 688
WIRE -2736 736 -2752 736
WIRE -2656 736 -2672 736
WIRE -1824 736 -1824 640
WIRE -1824 736 -1952 736
WIRE -1712 752 -1712 736
WIRE -1248 832 -1952 832
WIRE -1104 832 -1184 832
WIRE -896 832 -896 448
WIRE -896 832 -1040 832
WIRE -1104 848 -1104 832
WIRE -1040 848 -1040 832
WIRE -896 848 -896 832
WIRE -2592 912 -2592 896
WIRE -2496 912 -2496 896
WIRE -2400 912 -2400 896
WIRE -2304 912 -2304 896
WIRE -2208 912 -2208 896
WIRE -2112 912 -2112 896
WIRE -2016 912 -2016 896
WIRE -1104 944 -1104 928
WIRE -1040 944 -1040 928
WIRE -896 944 -896 928
WIRE -2592 1008 -2592 992
WIRE -2496 1008 -2496 992
WIRE -2400 1008 -2400 992
WIRE -2304 1008 -2304 992
WIRE -2208 1008 -2208 992
WIRE -2112 1008 -2112 992
WIRE -2800 1040 -2800 256
WIRE -1424 1040 -2800 1040
WIRE -1312 1040 -1312 544
WIRE -1312 1040 -1344 1040
FLAG -240 448 0
FLAG -1504 560 0
FLAG -304 -112 0
FLAG -48 -112 0
FLAG -112 368 0
FLAG -3136 656 0
FLAG -3232 -160 0
FLAG -3232 -272 IN
FLAG -48 -224 OUT
FLAG -2896 256 0
FLAG -1072 640 0
FLAG -1712 752 0
FLAG -1104 944 0
FLAG -2752 640 0
FLAG -2752 736 0
FLAG -2592 1008 0
FLAG -2496 1008 0
FLAG -2400 1008 0
FLAG -2304 1008 0
FLAG -2208 1008 0
FLAG -2112 1008 0
FLAG -2016 912 0
FLAG -1184 16 0
FLAG -480 32 0
FLAG -192 -112 0
FLAG -1648 96 0
FLAG -1904 176 0
FLAG -1760 176 0
FLAG -2160 176 0
FLAG -2224 80 0
FLAG -3072 -48 0
FLAG -2736 80 0
FLAG -2544 0 0
FLAG -1040 944 0
FLAG -896 944 0
FLAG -2880 -64 0
FLAG -1408 544 0
FLAG -704 160 0
FLAG -608 160 0
FLAG -320 64 0
FLAG -512 624 0
FLAG -608 624 0
FLAG -416 704 0
FLAG -1808 400 0
FLAG -2624 -160 0
FLAG -1232 368 0
FLAG -992 368 0
SYMBOL PowerProducts\\LT8311 -560 352 R0
SYMATTR InstName U1
SYMBOL res -1520 448 R0
WINDOW 0 36 30 Left 2
WINDOW 3 38 56 Left 2
SYMATTR InstName R1
SYMATTR Value 8m
SYMBOL ind2 -1392 -224 R0
WINDOW 0 -8 37 Right 2
WINDOW 3 -5 77 Right 2
SYMATTR InstName L1
SYMATTR Value 65µ
SYMATTR Type ind
SYMATTR SpiceLine Rser=4m Rpar=5k
SYMBOL ind2 -1296 -224 M0
WINDOW 0 -1 35 Right 2
WINDOW 3 -7 80 Right 2
SYMATTR InstName L2
SYMATTR Value 65µ
SYMATTR Type ind
SYMATTR SpiceLine Rser=4m Rpar=1Meg
SYMBOL ind -464 -208 R270
WINDOW 0 32 56 VTop 2
WINDOW 3 5 56 VBottom 2
SYMATTR InstName L3
SYMATTR Value 6.8µ
SYMATTR SpiceLine Rser=5m Rpar=10K
SYMBOL cap -320 -208 R0
WINDOW 123 27 56 Left 2
WINDOW 3 39 33 Left 2
SYMATTR Value2 x2
SYMATTR Value 22µ
SYMATTR InstName C1
SYMATTR SpiceLine Rser=10m
SYMBOL res -128 144 R0
SYMATTR Value 100K
SYMATTR InstName R2
SYMBOL res -128 256 R0
SYMATTR InstName R3
SYMATTR Value 11.3K
SYMBOL res -3152 448 R0
SYMATTR InstName R4
SYMATTR Value 5.9K
SYMBOL res -3152 544 R0
SYMATTR InstName R5
SYMATTR Value 1.82K
SYMBOL voltage -3232 -272 R0
WINDOW 123 0 0 Left 2
WINDOW 39 0 0 Left 2
SYMATTR InstName V1
SYMATTR Value 48
SYMBOL res -64 -224 R0
SYMATTR InstName Rload
SYMATTR Value 1
SYMBOL cap -2816 240 R90
WINDOW 0 0 32 VBottom 2
WINDOW 3 32 32 VTop 2
SYMATTR InstName C2
SYMATTR Value 4.7µ
SYMBOL nmos -1552 176 R0
WINDOW 0 66 33 Left 2
WINDOW 3 62 63 Left 2
SYMATTR InstName Q1
SYMATTR Value BSC077N12NS3
SYMBOL res -3152 352 R0
SYMATTR InstName R7
SYMATTR Value 100K
SYMBOL res -960 528 R90
WINDOW 0 0 56 VBottom 2
WINDOW 3 32 56 VTop 2
SYMATTR InstName R8
SYMATTR Value 3.4K
SYMBOL res -1328 1024 R90
WINDOW 0 0 56 VBottom 2
WINDOW 3 32 56 VTop 2
SYMATTR InstName R9
SYMATTR Value 100
SYMBOL res -1728 640 R0
SYMATTR InstName R10
SYMATTR Value 1K
SYMBOL cap -224 160 R0
SYMATTR InstName C3
SYMATTR Value 68p
SYMBOL ind2 -1120 944 M180
WINDOW 0 -2 79 Right 2
WINDOW 3 4 37 Right 2
SYMATTR InstName L4
SYMATTR Value 785µ
SYMATTR Type ind
SYMATTR SpiceLine Rser=.6
SYMBOL cap -1248 816 M90
WINDOW 0 0 32 VBottom 2
WINDOW 3 32 32 VTop 2
SYMATTR InstName C4
SYMATTR Value 220p
SYMBOL res -912 832 R0
SYMATTR InstName R11
SYMATTR Value 560
SYMBOL PowerProducts\\LT3752 -2304 544 R0
SYMATTR InstName U2
SYMBOL cap -2672 624 R90
WINDOW 0 0 32 VBottom 2
WINDOW 3 32 32 VTop 2
SYMATTR InstName C5
SYMATTR Value .01µ
SYMBOL cap -2672 720 R90
WINDOW 0 0 32 VBottom 2
WINDOW 3 32 32 VTop 2
SYMATTR InstName C6
SYMATTR Value .002µ
SYMBOL res -2608 896 R0
WINDOW 3 31 76 Left 2
SYMATTR Value 31.6K
SYMATTR InstName R12
SYMBOL res -2512 896 R0
WINDOW 3 32 76 Left 2
SYMATTR Value 71.5K
SYMATTR InstName R13
SYMBOL res -2416 896 R0
SYMATTR InstName R14
SYMATTR Value 34K
SYMBOL res -2320 896 R0
WINDOW 3 31 76 Left 2
SYMATTR Value 49.9K
SYMATTR InstName R15
SYMBOL res -2224 896 R0
WINDOW 3 29 76 Left 2
SYMATTR Value 22.6K
SYMATTR InstName R16
SYMBOL res -2128 896 R0
WINDOW 3 32 76 Left 2
SYMATTR Value 7.32K
SYMATTR InstName R17
SYMBOL res -1936 464 R270
WINDOW 0 32 56 VTop 2
WINDOW 3 0 56 VBottom 2
SYMATTR InstName R18
SYMATTR Value 2K
SYMBOL nmos -1136 -96 M0
WINDOW 3 -2 61 Right 2
WINDOW 0 -1 28 Right 2
SYMATTR Value BSC060N10NS3
SYMATTR InstName Q2
SYMBOL polcap -208 -208 R0
SYMATTR Value 180µ
SYMATTR InstName C7
SYMATTR SpiceLine V=16 Irms=4.46 Rser=0.011 Lser=0
SYMATTR Description Capacitor
SYMATTR Type cap
SYMBOL cap -1520 -48 R90
WINDOW 0 0 32 VBottom 2
WINDOW 3 32 32 VTop 2
SYMATTR InstName C8
SYMATTR Value .015µ
SYMBOL pmos -1696 -16 R0
WINDOW 3 54 69 Left 2
SYMATTR Value Si7113DN
SYMATTR InstName Q3
SYMBOL cap -2080 80 R0
SYMATTR InstName C9
SYMATTR Value .1µ
SYMBOL res -1776 64 R0
SYMATTR InstName R19
SYMATTR Value 10K
SYMBOL schottky -1920 96 R0
SYMATTR InstName D1
SYMATTR Value BAT46WJ
SYMATTR Description Diode
SYMATTR Type diode
SYMBOL ind2 -1024 944 R180
WINDOW 0 -4 80 Right 2
WINDOW 3 1 35 Right 2
SYMATTR InstName L5
SYMATTR Value 785µ
SYMATTR Type ind
SYMATTR SpiceLine Rser=1.6
SYMBOL nmos -2144 -128 M0
WINDOW 0 -6 27 Right 2
WINDOW 3 -6 59 Right 2
SYMATTR InstName Q4
SYMATTR Value BSP89
SYMBOL res -2240 -32 R0
SYMATTR InstName R20
SYMATTR Value .15
SYMBOL res -2240 -48 R90
WINDOW 0 0 56 VBottom 2
WINDOW 3 32 56 VTop 2
SYMATTR InstName R21
SYMATTR Value 499
SYMBOL ind2 -3056 -48 R180
WINDOW 0 -2 78 Right 2
WINDOW 3 -1 35 Right 2
SYMATTR InstName L6
SYMATTR Value 25.7µ
SYMATTR Type ind
SYMATTR SpiceLine Rser=.45
SYMBOL schottky -2992 -176 M90
WINDOW 0 0 32 VBottom 2
WINDOW 3 32 32 VTop 2
SYMATTR InstName D2
SYMATTR Value BAT46WJ
SYMATTR Description Diode
SYMATTR Type diode
SYMBOL res -2752 -48 R0
SYMATTR InstName R22
SYMATTR Value 1.1K
SYMBOL res -2752 -160 R0
SYMATTR InstName R23
SYMATTR Value 10K
SYMBOL cap -2560 176 M180
WINDOW 3 24 8 Left 2
WINDOW 0 24 56 Left 2
SYMATTR Value 3300p
SYMATTR InstName C10
SYMBOL ind2 -2208 -256 R0
WINDOW 0 40 36 Left 2
WINDOW 3 43 71 Left 2
SYMATTR InstName L7
SYMATTR Value 222µ
SYMATTR Type ind
SYMATTR SpiceLine Rser=.6
SYMBOL cap -2896 -144 R0
SYMATTR InstName C11
SYMATTR Value 6.8µ
SYMBOL res -1936 656 R270
WINDOW 0 32 56 VTop 2
WINDOW 3 0 56 VBottom 2
SYMATTR InstName R24
SYMATTR Value 100K
SYMBOL res -1824 656 R270
WINDOW 0 32 56 VTop 2
WINDOW 3 0 56 VBottom 2
SYMATTR InstName R25
SYMATTR Value 100K
SYMBOL cap -1328 528 R90
WINDOW 0 0 32 VBottom 2
WINDOW 3 32 32 VTop 2
SYMATTR InstName C12
SYMATTR Value 1µ
SYMBOL res -336 176 M180
WINDOW 0 36 76 Left 2
WINDOW 3 36 40 Left 2
SYMATTR InstName R26
SYMATTR Value 200
SYMBOL res -528 64 R0
SYMATTR InstName R27
SYMATTR Value 200
SYMBOL res -528 512 R0
WINDOW 3 26 89 Left 2
SYMATTR Value 499K
SYMATTR InstName R28
SYMBOL cap -624 544 R0
SYMATTR InstName C14
SYMATTR Value .01µ
SYMBOL cap -432 528 R0
WINDOW 39 23 64 Left 2
WINDOW 3 41 36 Left 2
SYMATTR Value 4700p
SYMATTR InstName C15
SYMBOL nmos -432 -80 M0
WINDOW 3 -3 59 Right 2
WINDOW 0 -5 26 Right 2
SYMATTR Value BSC077N12NS3
SYMATTR InstName Q5
SYMBOL res -1584 416 M270
WINDOW 0 32 56 VTop 2
WINDOW 3 0 56 VBottom 2
SYMATTR InstName R29
SYMATTR Value 12.4K
SYMBOL res -1696 416 M270
WINDOW 0 32 56 VTop 2
WINDOW 3 0 56 VBottom 2
SYMATTR InstName R30
SYMATTR Value 20K
SYMBOL Optos\\PC817B -1184 592 M0
SYMATTR InstName U3
SYMBOL cap -2640 -256 R0
WINDOW 3 37 34 Left 2
WINDOW 123 25 57 Left 2
SYMATTR Value 4.7µ
SYMATTR Value2 x3
SYMATTR InstName C16
SYMBOL res -2560 112 M180
WINDOW 0 36 76 Left 2
WINDOW 3 36 40 Left 2
SYMATTR InstName R31
SYMATTR Value 28K
SYMBOL ind2 -1216 368 R180
WINDOW 0 -3 74 Right 2
WINDOW 3 0 38 Right 2
SYMATTR InstName L8
SYMATTR Value 25.7µ
SYMATTR Type ind
SYMATTR SpiceLine Rser=.65
SYMBOL schottky -1136 240 M90
WINDOW 0 0 32 VBottom 2
WINDOW 3 32 32 VTop 2
SYMATTR InstName D3
SYMATTR Value BAT46WJ
SYMATTR Description Diode
SYMATTR Type diode
SYMBOL cap -1008 272 R0
WINDOW 3 37 35 Left 2
WINDOW 123 27 60 Left 2
SYMATTR InstName C17
SYMATTR Value 2.2µ
SYMATTR Value2 x2
SYMBOL res -432 592 R0
SYMATTR InstName R32
SYMATTR Value 13.7K
TEXT -1352 -224 Bottom 2 !K1 L1 L2 1
TEXT -416 800 Left 2 !.tran 6m startup
TEXT -1080 824 Bottom 2 !K2 L4 L5 1
TEXT -2808 -192 Bottom 2 !K3 L6 L7 L8 1
TEXT -1696 -312 Bottom 2 ;LT3752 - Active Clamp Synchronous Forward Controllers with Internal Housekeeping Controller\nLT8311 - Synchronous Rectifier Controller with Opto-Coupler Driver for Forward Converters\nActive Clamp Forward Converter with Synchronous Rectification\nInput: 36V to 72V     Output: 12V @ 12A
TEXT -2264 1072 Left 2 ;Note:\n  Some values like those for SS capacitors have been changed to reduce simulation time. See datasheet for typical values.\n  If the simulation model is not found please update with the "Sync Release" command from the "Tools" menu.\n  It remains the customer's responsibility to verify proper and reliable operation in the actual application.\n  Component substitution and printed circuit board layout may significantly affect circuit performance or reliability.\n  Contact your local sales representative for assistance. This circuit is distributed to customers only for use with LTC parts.\n  Copyright © 2017 Linear Technology Inc. All rights reserved.
