Version 4
SHEET 1 1744 788
WIRE -416 -128 -528 -128
WIRE -320 -128 -416 -128
WIRE -160 -128 -320 -128
WIRE 240 -128 -160 -128
WIRE 464 -128 240 -128
WIRE 576 -128 544 -128
WIRE 624 -128 576 -128
WIRE 720 -128 688 -128
WIRE 816 -128 720 -128
WIRE 944 -128 816 -128
WIRE -528 -112 -528 -128
WIRE -320 -112 -320 -128
WIRE -160 -112 -160 -128
WIRE 432 -112 -32 -112
WIRE 816 -112 816 -128
WIRE -32 -96 -32 -112
WIRE 240 -64 240 -128
WIRE -160 -32 -160 -48
WIRE -528 -16 -528 -32
WIRE 576 -16 576 -128
WIRE 816 -16 816 -48
WIRE -320 0 -320 -32
WIRE 64 0 -320 0
WIRE 432 0 432 -112
WIRE 432 0 416 0
WIRE 512 0 496 0
WIRE -320 16 -320 0
WIRE -32 64 -32 -16
WIRE 64 64 -32 64
WIRE 528 64 416 64
WIRE 720 64 720 -128
WIRE -416 96 -416 -128
WIRE -32 96 -32 64
WIRE 944 96 944 -128
WIRE 944 96 848 96
WIRE -320 112 -320 96
WIRE 944 112 944 96
WIRE 64 128 48 128
WIRE 576 128 576 80
WIRE 576 128 416 128
WIRE 576 144 576 128
WIRE 720 160 720 144
WIRE 720 160 672 160
WIRE 720 176 720 160
WIRE -416 192 -416 176
WIRE 64 192 -416 192
WIRE -416 208 -416 192
WIRE 944 208 944 192
WIRE 944 208 880 208
WIRE -32 224 -32 160
WIRE 48 224 -32 224
WIRE 944 240 944 208
WIRE -112 256 -160 256
WIRE 64 256 -32 256
WIRE 672 256 672 160
WIRE 672 256 416 256
WIRE 720 272 720 256
WIRE -416 304 -416 288
WIRE -160 320 -224 320
WIRE -48 320 -96 320
WIRE 48 320 48 224
WIRE 48 320 32 320
WIRE 64 320 48 320
WIRE 848 320 848 96
WIRE 848 320 416 320
WIRE 944 368 944 304
WIRE -112 384 -224 384
WIRE 64 384 -32 384
WIRE 880 384 880 208
WIRE 880 384 416 384
WIRE -320 448 -368 448
WIRE 64 448 -240 448
WIRE 896 448 416 448
WIRE 944 480 944 464
WIRE 240 528 240 512
FLAG 512 0 0
FLAG 576 224 0
FLAG 720 272 0
FLAG 816 -16 0
FLAG -528 -16 0
FLAG -320 112 0
FLAG -224 256 0
FLAG 944 480 0
FLAG -224 320 0
FLAG -224 384 0
FLAG 240 528 0
FLAG -368 448 0
FLAG -528 -128 IN
FLAG -416 304 0
FLAG -160 -32 0
SYMBOL cap 432 16 R270
WINDOW 0 32 32 VTop 0
WINDOW 3 0 32 VBottom 0
SYMATTR InstName C1
SYMATTR Value 4.7µ
SYMBOL nmos 528 -16 R0
SYMATTR InstName Q1
SYMATTR Value SI7454DP
SYMBOL res 560 128 R0
SYMATTR InstName R1
SYMATTR Value .015
SYMBOL ind 448 -112 R270
WINDOW 0 32 56 VTop 0
WINDOW 3 5 56 VBottom 0
SYMATTR InstName L1
SYMATTR Value 47µ
SYMATTR SpiceLine Rser=.07 Rpar=5K
SYMBOL res 704 48 R0
SYMATTR InstName R2
SYMATTR Value 1820K
SYMBOL res 704 160 R0
SYMATTR InstName R3
SYMATTR Value 24.9K
SYMBOL schottky 624 -112 R270
WINDOW 0 32 32 VTop 0
WINDOW 3 0 32 VBottom 0
SYMATTR InstName D1
SYMATTR Value PDS5100
SYMATTR Description Diode
SYMATTR Type diode
SYMBOL res 928 96 R0
SYMATTR InstName R4
SYMATTR Value .2
SYMBOL cap 800 -112 R0
SYMATTR InstName C2
SYMATTR Value 8µ
SYMATTR SpiceLine Rser=.005
SYMBOL voltage -528 -128 R0
WINDOW 123 0 0 Left 0
WINDOW 39 0 0 Left 0
SYMATTR InstName V1
SYMATTR Value 12
SYMBOL res -336 -128 R0
SYMATTR InstName R5
SYMATTR Value 499K
SYMBOL res -336 0 R0
SYMATTR InstName R6
SYMATTR Value 93.1K
SYMBOL cap -160 240 R90
WINDOW 0 0 32 VBottom 0
WINDOW 3 32 32 VTop 0
WINDOW 39 32 32 VTop 0
SYMATTR InstName C3
SYMATTR Value .0047µ
SYMBOL nmos 896 368 R0
SYMATTR InstName Q2
SYMATTR Value SI7454DP
SYMBOL LED 928 240 R0
WINDOW 3 29 67 Left 0
WINDOW 123 23 95 Left 0
SYMATTR Value LXK2-PW14
SYMATTR Value2 N=24
SYMATTR InstName D2
SYMATTR Description Diode
SYMATTR Type diode
SYMBOL cap -96 304 R90
WINDOW 0 0 32 VBottom 0
WINDOW 3 32 32 VTop 0
SYMATTR InstName C4
SYMATTR Value 0.1µ
SYMBOL res -16 368 R90
WINDOW 0 0 56 VBottom 0
WINDOW 3 32 56 VTop 0
SYMATTR InstName R7
SYMATTR Value 37.4K
SYMBOL voltage -224 448 R90
WINDOW 0 -32 56 VBottom 0
WINDOW 3 32 56 VTop 0
SYMATTR InstName V2
SYMATTR Value PULSE(0 5 0 1u 1u 125u 250u)
SYMBOL res -48 -112 R0
SYMATTR InstName R8
SYMATTR Value 100K
SYMBOL res -432 80 R0
SYMATTR InstName R9
SYMATTR Value 1000K
SYMBOL res -432 192 R0
SYMATTR InstName R10
SYMATTR Value 130K
SYMBOL res -16 240 R90
WINDOW 0 0 56 VBottom 0
WINDOW 3 32 56 VTop 0
SYMATTR InstName R11
SYMATTR Value 10K
SYMBOL PowerProducts\\LT3756 240 224 R0
SYMATTR InstName U1
SYMBOL res 48 304 R90
WINDOW 0 0 56 VBottom 0
WINDOW 3 32 56 VTop 0
SYMATTR InstName R12
SYMATTR Value 10K
SYMBOL cap -176 -112 R0
WINDOW 3 25 55 Left 0
SYMATTR InstName C5
SYMATTR Value 4.4µ
SYMBOL diode -48 160 M180
WINDOW 0 24 72 Left 0
WINDOW 3 24 0 Left 0
SYMATTR InstName D3
SYMATTR Value 1N4148
TEXT 616 496 Left 0 !.tran 14m startup
TEXT 256 -200 Bottom 0 ;LT3756 - 100VIN 100VLED High Current LED Driver Controller\nInput: 8V to 80V       Output: 80VLED @ 500mA
TEXT -296 544 Left 0 ;Note:\n  If the simulation model is not found please update with the "Sync Release" command from the "Tools" menu.\n  It remains the customer's responsibility to verify proper and reliable operation in the actual application.\n  Component substitution and printed circuit board layout may significantly affect circuit performance or reliability.\n  Contact your local sales representative for assistance. This circuit is distributed to customers only for use with LTC parts.\n  Copyright © 2008 Linear Technology Inc. All rights reserved.
