Version 4
SHEET 1 1744 716
WIRE -528 -112 -640 -112
WIRE -400 -112 -528 -112
WIRE -96 -112 -400 -112
WIRE 240 -112 -96 -112
WIRE 432 -112 240 -112
WIRE 592 -112 512 -112
WIRE 640 -112 592 -112
WIRE 736 -112 704 -112
WIRE 832 -112 736 -112
WIRE 960 -112 832 -112
WIRE -640 -96 -640 -112
WIRE -400 -96 -400 -112
WIRE -96 -96 -96 -112
WIRE 832 -96 832 -112
WIRE 240 -64 240 -112
WIRE 592 -16 592 -112
WIRE 832 -16 832 -32
WIRE -640 0 -640 -16
WIRE -400 0 -400 -16
WIRE 64 0 -400 0
WIRE 432 0 416 0
WIRE 512 0 496 0
WIRE -400 16 -400 0
WIRE -528 64 -528 -112
WIRE -176 64 -208 64
WIRE 64 64 -96 64
WIRE 544 64 416 64
WIRE 736 64 736 -112
WIRE 960 96 960 -112
WIRE 960 96 864 96
WIRE -400 112 -400 96
WIRE 960 112 960 96
WIRE 64 128 48 128
WIRE 592 128 592 80
WIRE 592 128 416 128
WIRE 592 144 592 128
WIRE 736 160 736 144
WIRE 736 160 688 160
WIRE 736 176 736 160
WIRE -528 192 -528 144
WIRE 64 192 -528 192
WIRE -528 208 -528 192
WIRE 960 208 960 192
WIRE 960 208 896 208
WIRE 960 240 960 208
WIRE -144 256 -160 256
WIRE -32 256 -80 256
WIRE 64 256 48 256
WIRE 688 256 688 160
WIRE 688 256 416 256
WIRE 736 272 736 256
WIRE -528 304 -528 288
WIRE -80 320 -160 320
WIRE 64 320 -16 320
WIRE 864 320 864 96
WIRE 864 320 416 320
WIRE 960 368 960 304
WIRE -32 384 -160 384
WIRE 64 384 48 384
WIRE 896 384 896 208
WIRE 896 384 416 384
WIRE -240 448 -256 448
WIRE 64 448 -160 448
WIRE 912 448 416 448
WIRE 960 480 960 464
WIRE 240 528 240 512
FLAG 512 0 0
FLAG 592 224 0
FLAG 736 272 0
FLAG 832 -16 0
FLAG -640 0 0
FLAG -400 112 0
FLAG -160 256 0
FLAG 960 480 0
FLAG -160 320 0
FLAG -160 384 0
FLAG 240 528 0
FLAG -256 448 0
FLAG -640 -112 IN
FLAG -528 304 0
FLAG -96 -32 0
FLAG -208 64 0
SYMBOL cap 432 16 R270
WINDOW 0 32 32 VTop 0
WINDOW 3 0 32 VBottom 0
SYMATTR InstName C1
SYMATTR Value 4.7µ
SYMBOL nmos 544 -16 R0
SYMATTR InstName Q1
SYMATTR Value SI7454DP
SYMBOL res 576 128 R0
SYMATTR InstName R1
SYMATTR Value .015
SYMBOL ind 416 -96 R270
WINDOW 0 32 56 VTop 0
WINDOW 3 5 56 VBottom 0
SYMATTR InstName L1
SYMATTR Value 47µ
SYMATTR SpiceLine Rser=.07 Rpar=2K
SYMBOL res 720 48 R0
SYMATTR InstName R2
SYMATTR Value 1820K
SYMBOL res 720 160 R0
SYMATTR InstName R3
SYMATTR Value 24.9K
SYMBOL schottky 640 -96 R270
WINDOW 0 32 32 VTop 0
WINDOW 3 0 32 VBottom 0
SYMATTR InstName D1
SYMATTR Value PDS5100
SYMATTR Description Diode
SYMATTR Type diode
SYMBOL res 944 96 R0
SYMATTR InstName R4
SYMATTR Value .2
SYMBOL cap 816 -96 R0
SYMATTR InstName C2
SYMATTR Value 8µ
SYMATTR SpiceLine Rser=.005
SYMBOL voltage -640 -112 R0
WINDOW 123 0 0 Left 0
WINDOW 39 0 0 Left 0
SYMATTR InstName V1
SYMATTR Value 12
SYMBOL res -416 -112 R0
SYMATTR InstName R5
SYMATTR Value 499K
SYMBOL res -416 0 R0
SYMATTR InstName R6
SYMATTR Value 93.1K
SYMBOL cap -80 240 R90
WINDOW 0 0 32 VBottom 0
WINDOW 3 32 32 VTop 0
WINDOW 39 32 32 VTop 0
SYMATTR InstName C3
SYMATTR Value .0047µ
SYMBOL nmos 912 368 R0
SYMATTR InstName Q2
SYMATTR Value SI7454DP
SYMBOL LED 944 240 R0
WINDOW 3 29 67 Left 0
WINDOW 123 23 95 Left 0
SYMATTR Value LXK2-PW14
SYMATTR Value2 N=24
SYMATTR InstName D2
SYMATTR Description Diode
SYMATTR Type diode
SYMBOL cap -16 304 R90
WINDOW 0 0 32 VBottom 0
WINDOW 3 32 32 VTop 0
SYMATTR InstName C4
SYMATTR Value .033µ
SYMBOL res 64 368 R90
WINDOW 0 0 56 VBottom 0
WINDOW 3 32 56 VTop 0
SYMATTR InstName R7
SYMATTR Value 43K
SYMBOL voltage -144 448 R90
WINDOW 0 -32 56 VBottom 0
WINDOW 3 32 56 VTop 0
SYMATTR InstName V2
SYMATTR Value PULSE(0 5 0 1u 1u 125u 250u)
SYMBOL res -544 48 R0
SYMATTR InstName R8
SYMATTR Value 1000K
SYMBOL res -544 192 R0
SYMATTR InstName R9
SYMATTR Value 130K
SYMBOL res 64 240 R90
WINDOW 0 0 56 VBottom 0
WINDOW 3 32 56 VTop 0
SYMATTR InstName R10
SYMATTR Value 10K
SYMBOL cap -112 -96 R0
WINDOW 0 26 11 Left 0
WINDOW 3 26 48 Left 0
SYMATTR InstName C5
SYMATTR Value 4.4µ
SYMBOL PowerProducts\\LT3756-1 240 224 R0
SYMATTR InstName U1
SYMBOL voltage -80 64 R90
WINDOW 3 32 56 VTop 0
WINDOW 123 32 56 VTop 0
WINDOW 39 32 56 VTop 0
WINDOW 0 -32 56 VBottom 0
SYMATTR Value PULSE(0 5 0 100n 100n 1.7u 3.33u)
SYMATTR InstName V3
TEXT 616 496 Left 0 !.tran 8m startup
TEXT 256 -160 Bottom 0 ;LT3756-1 - 100VIN 100VLED High Current LED Driver Controller with Sync\nInput: 8V to 80V       Output: 80VLED @ 500mA
TEXT -480 552 Left 0 ;Note:\n  If the simulation model is not found please update with the "Sync Release" command from the "Tools" menu.\n  It remains the customer's responsibility to verify proper and reliable operation in the actual application.\n  Component substitution and printed circuit board layout may significantly affect circuit performance or reliability.\n  Contact your local sales representative for assistance. This circuit is distributed to customers only for use with LTC parts.\n  Copyright © 2008 Linear Technology Inc. All rights reserved.
