Version 4
SHEET 1 1752 740
WIRE -768 -1808 -928 -1808
WIRE -592 -1808 -768 -1808
WIRE -560 -1808 -592 -1808
WIRE -464 -1808 -480 -1808
WIRE -384 -1808 -464 -1808
WIRE -64 -1808 -384 -1808
WIRE -48 -1808 -64 -1808
WIRE 32 -1808 16 -1808
WIRE -928 -1792 -928 -1808
WIRE -592 -1792 -592 -1808
WIRE -464 -1792 -464 -1808
WIRE -928 -1696 -928 -1712
WIRE -768 -1680 -768 -1808
WIRE -592 -1680 -592 -1712
WIRE -576 -1680 -592 -1680
WIRE -560 -1680 -576 -1680
WIRE -480 -1680 -496 -1680
WIRE -464 -1680 -464 -1712
WIRE -464 -1680 -480 -1680
WIRE -384 -1680 -384 -1808
WIRE -368 -1680 -384 -1680
WIRE -288 -1680 -304 -1680
WIRE -128 -1664 -128 -1680
WIRE -576 -1632 -576 -1680
WIRE -480 -1632 -480 -1680
WIRE -384 -1632 -384 -1680
WIRE -880 -1568 -912 -1568
WIRE -768 -1568 -768 -1600
WIRE -768 -1568 -800 -1568
WIRE -672 -1568 -768 -1568
WIRE -240 -1568 -288 -1568
WIRE -128 -1568 -128 -1600
WIRE -128 -1568 -240 -1568
WIRE -240 -1552 -240 -1568
WIRE -912 -1472 -928 -1472
WIRE -832 -1472 -848 -1472
WIRE -720 -1472 -832 -1472
WIRE -672 -1472 -720 -1472
WIRE -240 -1472 -240 -1488
WIRE -240 -1472 -288 -1472
WIRE -64 -1456 -64 -1808
WIRE -832 -1392 -832 -1472
WIRE -720 -1376 -720 -1472
WIRE -672 -1376 -720 -1376
WIRE -112 -1376 -288 -1376
WIRE -240 -1360 -240 -1472
WIRE -832 -1280 -832 -1312
WIRE -672 -1280 -832 -1280
WIRE -240 -1280 -240 -1296
WIRE -240 -1280 -288 -1280
WIRE -64 -1280 -64 -1360
WIRE -64 -1280 -240 -1280
WIRE 0 -1280 -64 -1280
WIRE 128 -1280 80 -1280
WIRE 144 -1280 128 -1280
WIRE 240 -1280 224 -1280
WIRE 272 -1280 240 -1280
WIRE 320 -1280 272 -1280
WIRE 432 -1280 320 -1280
WIRE -832 -1264 -832 -1280
WIRE -64 -1264 -64 -1280
WIRE 320 -1264 320 -1280
WIRE 432 -1264 432 -1280
WIRE -720 -1184 -720 -1376
WIRE -672 -1184 -720 -1184
WIRE -112 -1184 -288 -1184
WIRE -832 -1168 -832 -1184
WIRE 320 -1168 320 -1200
WIRE 432 -1168 432 -1200
WIRE -64 -1152 -64 -1168
WIRE -864 -1088 -880 -1088
WIRE -784 -1088 -800 -1088
WIRE -672 -1088 -704 -1088
WIRE 128 -1088 128 -1280
WIRE 128 -1088 -288 -1088
WIRE 272 -1008 272 -1280
WIRE -864 -992 -880 -992
WIRE -784 -992 -800 -992
WIRE -672 -992 -704 -992
WIRE 240 -992 240 -1280
WIRE 240 -992 -288 -992
WIRE -864 -896 -880 -896
WIRE -768 -896 -800 -896
WIRE -672 -896 -688 -896
WIRE 272 -896 272 -928
WIRE 272 -896 -288 -896
WIRE 272 -880 272 -896
WIRE -752 -800 -768 -800
WIRE -672 -800 -688 -800
WIRE -272 -800 -288 -800
WIRE 272 -784 272 -800
WIRE -672 -704 -720 -704
WIRE -272 -704 -288 -704
WIRE -128 -704 -128 -1568
WIRE -128 -704 -192 -704
WIRE -544 -624 -544 -640
WIRE -416 -624 -416 -640
WIRE -544 -528 -544 -544
WIRE -720 -496 -720 -704
WIRE -128 -496 -128 -704
WIRE -128 -496 -720 -496
FLAG -416 -624 0
FLAG -544 -528 0
FLAG -768 -800 0
FLAG -880 -896 0
FLAG -880 -992 0
FLAG -880 -1088 0
FLAG -928 -1472 0
FLAG -928 -1696 0
FLAG -912 -1568 0
FLAG 32 -1808 0
FLAG -128 -1680 0
FLAG -64 -1152 0
FLAG 272 -784 0
FLAG 320 -1168 0
FLAG 432 -1168 0
FLAG -832 -1168 0
FLAG -928 -1808 IN
FLAG 432 -1280 OUT
FLAG -288 -1680 0
SYMBOL PowerProducts\\LT3763 -480 -1136 R0
SYMATTR InstName U1
SYMBOL res -560 -640 R0
SYMATTR InstName R1
SYMATTR Value 82.5K
SYMBOL cap -688 -816 R90
WINDOW 0 0 32 VBottom 2
WINDOW 3 32 32 VTop 2
SYMATTR InstName C1
SYMATTR Value 10n
SYMBOL res -688 -1008 R90
WINDOW 0 0 56 VBottom 2
WINDOW 3 32 56 VTop 2
SYMATTR InstName R2
SYMATTR Value 50
SYMBOL cap -800 -1008 R90
WINDOW 0 0 32 VBottom 2
WINDOW 3 32 32 VTop 2
SYMATTR InstName C2
SYMATTR Value 1n
SYMBOL res -688 -1104 R90
WINDOW 0 0 56 VBottom 2
WINDOW 3 32 56 VTop 2
SYMATTR InstName R3
SYMATTR Value 50
SYMBOL cap -800 -1104 R90
WINDOW 0 0 32 VBottom 2
WINDOW 3 32 32 VTop 2
SYMATTR InstName C3
SYMATTR Value 1n
SYMBOL cap -848 -1488 R90
WINDOW 0 0 32 VBottom 2
WINDOW 3 32 32 VTop 2
SYMATTR InstName C4
SYMATTR Value 2.2µ
SYMBOL voltage -928 -1808 R0
WINDOW 123 24 138 Left 2
WINDOW 39 24 117 Left 2
SYMATTR Value 60
SYMATTR InstName V2
SYMBOL res -576 -1792 R270
WINDOW 0 32 56 VTop 2
WINDOW 3 0 56 VBottom 2
SYMATTR InstName R4
SYMATTR Value 50m
SYMBOL res -576 -1808 M0
WINDOW 0 37 48 Left 2
SYMATTR InstName R5
SYMATTR Value 1K
SYMBOL res -480 -1808 R0
SYMATTR InstName R6
SYMATTR Value 1K
SYMBOL cap -560 -1664 R270
WINDOW 0 32 32 VTop 2
WINDOW 3 0 32 VBottom 2
SYMATTR InstName C5
SYMATTR Value 1µ
SYMBOL res -784 -1696 R0
SYMATTR InstName R7
SYMATTR Value 309K
SYMBOL res -784 -1584 R90
WINDOW 0 0 56 VBottom 2
WINDOW 3 32 56 VTop 2
SYMATTR InstName R8
SYMATTR Value 15.4K
SYMBOL cap -48 -1792 R270
WINDOW 0 32 32 VTop 2
WINDOW 3 0 32 VBottom 2
SYMATTR InstName C6
SYMATTR Value 4.7µ
SYMBOL cap -144 -1600 M180
WINDOW 0 24 56 Left 2
WINDOW 3 24 8 Left 2
SYMATTR InstName C7
SYMATTR Value 4.7µ
SYMBOL schottky -256 -1552 R0
SYMATTR InstName D1
SYMATTR Value 1N5819
SYMATTR Description Diode
SYMATTR Type diode
SYMBOL cap -256 -1360 R0
SYMATTR InstName C8
SYMATTR Value 50n
SYMBOL nmos -112 -1456 R0
SYMATTR InstName Q1
SYMATTR Value RJK0305DPB
SYMBOL nmos -112 -1264 R0
SYMATTR InstName Q2
SYMATTR Value RJK0301DPB
SYMBOL res 128 -1264 R270
WINDOW 0 32 56 VTop 2
WINDOW 3 0 56 VBottom 2
SYMATTR InstName R9
SYMATTR Value 50m
SYMBOL res 256 -1024 R0
SYMATTR InstName R10
SYMATTR Value 287K
SYMBOL res 256 -896 R0
SYMATTR InstName R11
SYMATTR Value 12.1K
SYMBOL LED 416 -1264 R0
WINDOW 3 90 35 Left 2
WINDOW 123 24 73 Left 2
SYMATTR Value PT-121-B
SYMATTR Value2 N=5
SYMATTR InstName D2
SYMATTR Description Diode
SYMATTR Type diode
SYMBOL ind -16 -1264 R270
WINDOW 0 41 54 VTop 2
WINDOW 3 -1 53 VBottom 2
SYMATTR InstName L1
SYMATTR Value 100µ
SYMBOL res -176 -720 R90
WINDOW 0 0 56 VBottom 2
WINDOW 3 32 56 VTop 2
SYMATTR InstName R12
SYMATTR Value 47.5K
SYMBOL cap -800 -912 R90
WINDOW 0 0 32 VBottom 2
WINDOW 3 32 32 VTop 2
SYMATTR InstName C9
SYMATTR Value 4.7n
SYMBOL res -672 -912 R90
WINDOW 0 0 56 VBottom 2
WINDOW 3 32 56 VTop 2
SYMATTR InstName R13
SYMATTR Value 59K
SYMBOL res -848 -1408 R0
SYMATTR InstName R14
SYMATTR Value 25K
SYMBOL res -848 -1280 R0
SYMATTR InstName R15
SYMATTR Value 25K
SYMBOL cap 304 -1264 R0
WINDOW 3 43 35 Left 2
WINDOW 123 24 59 Left 2
SYMATTR Value 10µ
SYMATTR Value2 x2
SYMATTR InstName C10
SYMATTR SpiceLine Rser=1m
SYMBOL cap -368 -1664 R270
WINDOW 0 32 32 VTop 2
WINDOW 3 0 32 VBottom 2
SYMATTR InstName C11
SYMATTR Value 1µ
TEXT -64 -536 Left 2 !.tran 5m startup
TEXT -1136 -496 Left 2 ;Notes:\n  If the simulation model is not found please update with the "Sync Release" command from the "Tools" menu.\n  It remains the customer's responsibility to verify proper and reliable operation in the actual application.\n  Component substitution and printed circuit board layout may significantly affect circuit performance or reliability.\n  Contact your local sales representative for assistance. This circuit is distributed to customers only for use with LTC parts.\n  Copyright © 2013 Linear Technology Inc. All rights reserved.
TEXT -520 -1856 Bottom 2 ;LT3763 - 60V High Current Step-Down LED Driver Controller\n1A, Five LED Driver\nInput: 32V to 60V    Outputs: 30V LED String @ 1A   Fsw = 500kHz
TEXT -856 -1280 Right 2 ;50% Analog Dimming
