Version 4
SHEET 1 2580 860
WIRE 304 -144 208 -144
WIRE 416 -144 304 -144
WIRE 544 -144 416 -144
WIRE 752 -144 544 -144
WIRE 784 -144 752 -144
WIRE 1152 -144 784 -144
WIRE 208 -128 208 -144
WIRE 304 -128 304 -144
WIRE 416 -128 416 -144
WIRE 784 -128 784 -144
WIRE 544 -112 544 -144
WIRE 1248 -112 992 -112
WIRE 1424 -112 1312 -112
WIRE 784 -48 784 -64
WIRE 992 -48 992 -112
WIRE 1008 -48 992 -48
WIRE 1120 -48 1072 -48
WIRE 208 -32 208 -48
WIRE 304 -32 304 -64
WIRE 416 -32 416 -64
WIRE 752 -16 752 -144
WIRE 544 32 544 -32
WIRE 544 32 512 32
WIRE 560 32 544 32
WIRE 992 32 992 -48
WIRE 992 32 944 32
WIRE 1056 32 992 32
WIRE 992 48 992 32
WIRE 448 128 432 128
WIRE 560 128 512 128
WIRE 992 128 992 112
WIRE 992 128 944 128
WIRE 992 144 992 128
WIRE 1152 144 1152 -144
WIRE 560 224 432 224
WIRE 1104 224 944 224
WIRE 448 320 432 320
WIRE 560 320 528 320
WIRE 992 320 992 208
WIRE 992 320 944 320
WIRE 1152 320 1152 240
WIRE 1152 320 992 320
WIRE 1200 320 1152 320
WIRE 1296 320 1280 320
WIRE 1312 320 1296 320
WIRE 1424 320 1424 -112
WIRE 1424 320 1392 320
WIRE 1472 320 1424 320
WIRE 1600 320 1472 320
WIRE 1728 320 1600 320
WIRE 1472 336 1472 320
WIRE 1600 336 1600 320
WIRE 1728 336 1728 320
WIRE 1152 352 1152 320
WIRE 352 416 288 416
WIRE 464 416 432 416
WIRE 560 416 464 416
WIRE 1024 416 944 416
WIRE 1472 416 1472 400
WIRE 1600 416 1600 400
WIRE 288 432 288 416
WIRE 464 432 464 416
WIRE 1152 432 1152 416
WIRE 1728 432 1728 416
WIRE 1024 464 1024 416
WIRE 1296 464 1296 320
WIRE 1296 464 1024 464
WIRE 288 512 288 496
WIRE 464 512 464 496
WIRE 560 512 528 512
WIRE 1424 512 1424 320
WIRE 1424 512 944 512
WIRE 688 576 688 560
WIRE 816 576 816 560
WIRE 416 608 400 608
WIRE 528 608 528 512
WIRE 528 608 496 608
WIRE 1120 608 528 608
WIRE 1424 608 1424 512
WIRE 1424 608 1200 608
FLAG 288 512 0
FLAG 816 576 0
FLAG 1472 416 0
FLAG 1728 432 0
FLAG 208 -32 0
FLAG 1728 320 OUT
FLAG 208 -144 IN
FLAG 1152 432 0
FLAG 688 576 0
FLAG 432 128 0
FLAG 432 320 0
FLAG 400 608 0
FLAG 1120 32 0
FLAG 784 -48 0
FLAG 304 -32 0
FLAG 1120 -48 0
FLAG 416 -32 0
FLAG 432 32 0
FLAG 432 224 0
FLAG 1600 416 0
FLAG 464 512 0
SYMBOL nmos 1104 144 R0
SYMATTR InstName Q1
SYMATTR Value Si7852DP
SYMBOL diode 976 48 R0
SYMATTR InstName D1
SYMATTR Value 1N4148
SYMBOL cap 976 144 R0
SYMATTR Value .22µ
SYMATTR InstName C2
SYMATTR SpiceLine V=16
SYMBOL res 528 -128 R0
SYMATTR InstName R1
SYMATTR Value 1Meg
SYMBOL cap 272 432 R0
SYMATTR InstName C7
SYMATTR Value 680p
SYMBOL schottky 1136 416 M180
WINDOW 0 31 67 Left 2
WINDOW 3 20 1 Left 2
SYMATTR InstName D2
SYMATTR Value PDS5100
SYMATTR Description Diode
SYMATTR Type diode
SYMBOL ind 1184 336 R270
WINDOW 0 32 56 VTop 2
WINDOW 3 5 56 VBottom 2
SYMATTR InstName L1
SYMATTR Value 15µ
SYMATTR SpiceLine Rser=0.025
SYMBOL res 1296 336 R270
WINDOW 0 32 56 VTop 2
WINDOW 3 0 56 VBottom 2
SYMATTR InstName R5
SYMATTR Value 15m
SYMBOL res 544 304 R90
WINDOW 0 0 56 VBottom 2
WINDOW 3 32 56 VTop 2
SYMATTR InstName R15
SYMATTR Value 49.9K
SYMBOL cap 512 112 R90
WINDOW 0 0 32 VBottom 2
WINDOW 3 32 32 VTop 2
SYMATTR InstName C3
SYMATTR Value 2.2n
SYMBOL voltage 208 -144 R0
WINDOW 123 24 138 Left 2
WINDOW 39 24 117 Left 2
SYMATTR Value 36
SYMATTR InstName V1
SYMBOL diode 1312 -128 R90
WINDOW 0 0 32 VBottom 2
WINDOW 3 32 32 VTop 2
SYMATTR InstName D5
SYMATTR Value 1N4148
SYMBOL res 1104 624 R270
WINDOW 0 32 56 VTop 2
WINDOW 3 1 54 VBottom 2
SYMATTR InstName R8
SYMATTR Value 130K
SYMBOL res 400 624 R270
WINDOW 0 32 56 VTop 2
WINDOW 3 0 56 VBottom 2
SYMATTR InstName R7
SYMATTR Value 14.7K
SYMBOL cap 1008 -64 M90
WINDOW 0 0 32 VBottom 2
WINDOW 3 32 32 VTop 2
SYMATTR InstName C5
SYMATTR Value 1µ
SYMATTR SpiceLine V=16
SYMBOL res 528 16 R90
WINDOW 0 0 56 VBottom 2
WINDOW 3 32 56 VTop 2
SYMATTR InstName R3
SYMATTR Value 113k
SYMBOL res 1712 320 R0
SYMATTR InstName Rload
SYMATTR Value 6
SYMBOL PowerProducts\\LT3844 752 272 R0
SYMATTR InstName U1
SYMBOL polcap 288 -128 R0
SYMATTR InstName CIN1
SYMATTR Value 68µ
SYMATTR Description Capacitor
SYMATTR Type cap
SYMBOL cap 400 -128 R0
SYMATTR InstName CIN2
SYMATTR Value 2.2µ
SYMBOL cap 768 -128 R0
SYMATTR InstName C1
SYMATTR Value 1000p
SYMATTR SpiceLine V=100
SYMBOL cap 1120 16 R90
WINDOW 0 0 32 VBottom 2
WINDOW 3 32 32 VTop 2
SYMATTR InstName C4
SYMATTR Value 0.1µ
SYMBOL polcap 1456 336 R0
SYMATTR InstName COUT1
SYMATTR Value 180µ
SYMATTR Description Capacitor
SYMATTR Type cap
SYMATTR SpiceLine Rser=0.03
SYMBOL res 448 400 R90
WINDOW 0 0 56 VBottom 2
WINDOW 3 32 56 VTop 2
SYMATTR InstName R9
SYMATTR Value 82.5K
SYMBOL cap 448 432 R0
SYMATTR InstName C6
SYMATTR Value 120p
SYMBOL cap 1584 336 R0
SYMATTR InstName COUT2
SYMATTR Value 10µ
TEXT 1496 536 Left 2 !.tran 2m startup
TEXT 848 -152 Bottom 2 ;LT3844 - High Voltage, Current Mode Switching Regulator Controller with Programmable Operating Frequency\nInput: 15V to 60V       Output: 12V @ 4.2A
TEXT 216 648 Left 2 ;Note:\n  If the simulation model is not found please update with the "Sync Release" command from the "Tools" menu.\n  It remains the customer's responsibility to verify proper and reliable operation in the actual application.\n  Component substitution and printed circuit board layout may significantly affect circuit performance or reliability.\n  Contact your local sales representative for assistance. This circuit is distributed to customers only for use with LTC parts.\n  Copyright © 2011 Linear Technology Inc. All rights reserved.
