Version 4
SHEET 1 2356 1396
WIRE 32 -304 -96 -304
WIRE 192 -304 32 -304
WIRE 480 -304 192 -304
WIRE 736 -304 480 -304
WIRE 992 -304 800 -304
WIRE 1104 -304 992 -304
WIRE 1136 -304 1104 -304
WIRE 1264 -304 1216 -304
WIRE 1376 -304 1264 -304
WIRE 480 -288 480 -304
WIRE 992 -288 992 -304
WIRE -96 -272 -96 -304
WIRE 32 -240 32 -304
WIRE 192 -240 192 -304
WIRE 736 -240 736 -304
WIRE 800 -240 800 -304
WIRE 1104 -240 1104 -304
WIRE 1264 -240 1264 -304
WIRE 1376 -240 1376 -304
WIRE 480 -208 480 -224
WIRE 992 -208 992 -224
WIRE -96 -160 -96 -192
WIRE 32 -112 32 -160
WIRE 128 -112 32 -112
WIRE 480 -112 480 -128
WIRE 736 -112 736 -160
WIRE 736 -112 480 -112
WIRE 800 -112 800 -160
WIRE 928 -112 800 -112
WIRE 992 -112 992 -128
WIRE 1104 -112 1104 -176
WIRE 1104 -112 992 -112
WIRE 1264 -112 1264 -176
WIRE 1264 -112 1104 -112
WIRE 1376 -112 1376 -160
WIRE 1376 -112 1264 -112
WIRE 32 -96 32 -112
WIRE 1376 -96 1376 -112
WIRE 192 -64 192 -160
WIRE 256 -64 192 -64
WIRE 304 -64 256 -64
WIRE 368 -64 304 -64
WIRE 512 -64 448 -64
WIRE 624 -64 576 -64
WIRE 736 -64 624 -64
WIRE 192 -48 192 -64
WIRE 304 -48 304 -64
WIRE 736 -48 736 -64
WIRE 928 -32 928 -112
WIRE 960 -32 928 -32
WIRE 1056 -32 1024 -32
WIRE 1152 -32 1136 -32
WIRE 1232 -32 1152 -32
WIRE 1232 -16 1232 -32
WIRE 32 0 32 -16
WIRE 928 16 928 -32
WIRE 192 32 192 16
WIRE 304 32 304 16
WIRE 480 32 480 -112
WIRE 1344 32 1296 32
WIRE 128 64 128 -112
WIRE 256 64 256 -64
WIRE 736 64 736 32
WIRE 1232 96 1232 80
WIRE 1232 96 976 96
WIRE 432 112 368 112
WIRE 1232 112 1232 96
WIRE 1344 160 1344 32
WIRE 1344 160 1296 160
WIRE 16 192 0 192
WIRE 480 192 480 128
WIRE 480 192 368 192
WIRE 1344 208 1344 160
WIRE 928 224 928 112
WIRE 1232 224 1232 208
WIRE 1232 224 928 224
WIRE 1232 240 1232 224
WIRE -128 272 -144 272
WIRE 16 272 -64 272
WIRE 480 272 368 272
WIRE 480 288 480 272
WIRE 656 336 384 336
WIRE 768 336 736 336
WIRE 928 336 832 336
WIRE 1088 336 992 336
WIRE 1232 336 1152 336
WIRE 1344 336 1344 288
WIRE 1344 336 1232 336
WIRE -80 352 -144 352
WIRE 16 352 0 352
WIRE 384 352 384 336
WIRE 384 352 368 352
WIRE 928 352 928 336
WIRE 992 352 992 336
WIRE 1232 352 1232 336
WIRE 1344 352 1344 336
WIRE 416 384 384 384
WIRE 448 384 416 384
WIRE 544 384 528 384
WIRE 416 400 416 384
WIRE 544 400 544 384
WIRE 624 416 624 -64
WIRE -128 432 -144 432
WIRE 16 432 -48 432
WIRE 384 432 384 384
WIRE 384 432 368 432
WIRE 928 448 928 432
WIRE 928 448 816 448
WIRE 992 448 992 432
WIRE 1232 448 1232 432
WIRE 1232 448 992 448
WIRE 1344 448 1344 416
WIRE 1344 448 1232 448
WIRE 1232 464 1232 448
WIRE 416 480 416 464
WIRE 544 480 544 464
WIRE -80 512 -144 512
WIRE 16 512 0 512
WIRE 624 512 624 496
WIRE 624 512 368 512
WIRE 624 528 624 512
WIRE -128 592 -144 592
WIRE 16 592 -48 592
WIRE 384 592 368 592
WIRE 464 592 448 592
WIRE 624 624 624 608
WIRE 192 656 192 640
FLAG 480 288 0
FLAG 1152 32 0
FLAG 1376 -304 OUT
FLAG 1232 464 0
FLAG 1232 240 0
FLAG 816 448 0
FLAG -96 -160 0
FLAG 624 624 0
FLAG 32 0 0
FLAG 736 64 0
FLAG 192 656 0
FLAG -96 -304 IN
FLAG 304 32 0
FLAG 192 32 0
FLAG -144 592 0
FLAG -144 512 0
FLAG -144 432 0
FLAG -144 352 0
FLAG -144 272 0
FLAG 0 192 0
FLAG 464 592 0
FLAG 544 480 0
FLAG 416 480 0
FLAG 1376 -96 0
FLAG 256 -64 VCC
SYMBOL ind2 720 -144 M180
WINDOW 0 -1 76 Right 0
WINDOW 3 -6 39 Right 0
SYMATTR InstName L1
SYMATTR Value 38.5µ
SYMATTR Type ind
SYMATTR SpiceLine Rser=39m Rpar=50k
SYMBOL ind2 816 -256 M0
WINDOW 0 -2 39 Right 0
WINDOW 3 -1 68 Right 0
SYMATTR InstName L2
SYMATTR Value 0.6µ
SYMATTR Type ind
SYMATTR SpiceLine Rser=2.5m
SYMBOL nmos 432 32 R0
WINDOW 0 61 26 Left 0
WINDOW 3 57 65 Left 0
SYMATTR InstName Q1
SYMATTR Value Si4490DY
SYMBOL res 464 176 R0
SYMATTR InstName R1
SYMATTR Value 20m
SYMBOL cap 832 320 R90
WINDOW 0 0 32 VBottom 0
WINDOW 3 32 32 VTop 0
WINDOW 39 57 32 VTop 0
SYMATTR InstName C1
SYMATTR Value .1µ
SYMBOL cap 1152 320 R90
WINDOW 0 0 32 VBottom 0
WINDOW 3 32 32 VTop 0
SYMATTR InstName C2
SYMATTR Value .0022µ
SYMBOL res 1216 336 R0
SYMATTR InstName R2
SYMATTR Value 10K
SYMBOL schottky 1328 416 M180
WINDOW 0 39 66 Left 0
WINDOW 3 24 0 Left 0
SYMATTR InstName D1
SYMATTR Value BAT54
SYMATTR Description Diode
SYMATTR Type diode
SYMBOL pnp 1296 208 R180
WINDOW 0 105 66 Right 0
WINDOW 3 137 27 Right 0
SYMATTR InstName Q2
SYMATTR Value 2N2907
SYMBOL nmos 976 16 M0
WINDOW 3 26 112 Right 0
WINDOW 0 -5 40 Right 0
SYMATTR Value HAT2165H
SYMATTR InstName Q3
SYMBOL npn 1296 -16 M0
WINDOW 0 35 -13 Right 0
WINDOW 3 40 110 Right 0
SYMATTR InstName Q4
SYMATTR Value 2N2222
SYMBOL cap 1136 -32 R0
WINDOW 3 40 48 Left 0
WINDOW 0 35 19 Left 0
SYMATTR Value 1µ
SYMATTR InstName C3
SYMBOL schottky 960 -16 R270
WINDOW 0 32 32 VTop 0
WINDOW 3 0 32 VBottom 0
SYMATTR InstName D2
SYMATTR Value MBR0540
SYMATTR Description Diode
SYMATTR Type diode
SYMBOL res 1040 -16 R270
WINDOW 0 32 56 VTop 0
WINDOW 3 0 56 VBottom 0
SYMATTR InstName R3
SYMATTR Value 47
SYMBOL ind2 912 448 M180
WINDOW 0 -4 74 Right 0
WINDOW 3 -2 44 Right 0
SYMATTR InstName L4
SYMATTR Value 1.4m
SYMATTR Type ind
SYMATTR SpiceLine Rser=1.5
SYMBOL ind2 1008 448 R180
WINDOW 0 -3 72 Right 0
WINDOW 3 -4 39 Right 0
SYMATTR InstName L5
SYMATTR Value 1.4m
SYMATTR Type ind
SYMATTR SpiceLine Rser=1.5
SYMBOL voltage -96 -288 R0
SYMATTR InstName V1
SYMATTR Value 48
SYMBOL cap -64 256 R90
WINDOW 0 0 32 VBottom 0
WINDOW 3 32 32 VTop 0
SYMATTR InstName C4
SYMATTR Value 47p
SYMBOL res 16 496 R90
WINDOW 0 0 56 VBottom 0
WINDOW 3 32 56 VTop 0
SYMATTR InstName R4
SYMATTR Value 169K
SYMBOL res -32 576 R90
WINDOW 0 0 56 VBottom 0
WINDOW 3 32 56 VTop 0
SYMATTR InstName R5
SYMATTR Value 887
SYMBOL res -32 416 R90
WINDOW 0 0 56 VBottom 0
WINDOW 3 32 56 VTop 0
SYMATTR InstName R6
SYMATTR Value 100K
SYMBOL cap 1088 -240 R0
WINDOW 3 45 35 Left 0
WINDOW 40 33 62 Left 0
SYMATTR Value 47µ
SYMATTR SpiceLine2 x3
SYMATTR InstName C5
SYMATTR SpiceLine Rser=4m
SYMBOL res 608 400 R0
SYMATTR InstName R7
SYMATTR Value 28.7K
SYMBOL res 608 624 M180
WINDOW 0 36 76 Left 0
WINDOW 3 36 40 Left 0
SYMATTR InstName R8
SYMATTR Value 3.01K
SYMBOL res 16 0 M180
WINDOW 0 36 76 Left 0
WINDOW 3 36 40 Left 0
SYMATTR InstName R9
SYMATTR Value 15K
SYMBOL res 16 -144 M180
WINDOW 0 36 76 Left 0
WINDOW 3 36 40 Left 0
SYMATTR InstName R10
SYMATTR Value 412K
SYMBOL ind2 720 -64 R0
WINDOW 0 -1 43 Right 0
WINDOW 3 -2 82 Right 0
SYMATTR InstName L3
SYMATTR Value 9.6µ
SYMATTR Type ind
SYMATTR SpiceLine Rser=0.23
SYMBOL res 544 400 M270
WINDOW 0 32 56 VTop 0
WINDOW 3 0 56 VBottom 0
SYMATTR InstName R11
SYMATTR Value 20K
SYMBOL cap 400 400 R0
SYMATTR InstName C6
SYMATTR Value .0022µ
SYMBOL cap 528 400 R0
SYMATTR InstName C7
SYMATTR Value .01µ
SYMBOL res 752 320 R90
WINDOW 0 0 56 VBottom 0
WINDOW 3 32 56 VTop 0
SYMATTR InstName R12
SYMATTR Value 330
SYMBOL cap 1248 -240 R0
SYMATTR Value 470µ
SYMATTR InstName C8
SYMATTR SpiceLine Rser=10m
SYMBOL PowerProducts\\LT3825 192 352 R0
SYMATTR InstName U1
SYMBOL res 1328 192 R0
SYMATTR InstName R13
SYMATTR Value 15
SYMBOL cap 976 -288 R0
SYMATTR InstName C9
SYMATTR Value .0022µ
SYMBOL res 976 -224 R0
SYMATTR InstName R14
SYMATTR Value 4.7
SYMBOL cap 384 608 R270
WINDOW 0 32 32 VTop 0
WINDOW 3 0 32 VBottom 0
SYMATTR InstName C10
SYMATTR Value .1µ
SYMBOL res 16 336 R90
WINDOW 0 0 56 VBottom 0
WINDOW 3 32 56 VTop 0
SYMATTR InstName R15
SYMATTR Value 12K
SYMBOL cap 464 -288 R0
SYMATTR InstName C11
SYMATTR Value 100p
SYMBOL res 464 -112 M180
WINDOW 0 36 76 Left 0
WINDOW 3 36 40 Left 0
SYMATTR InstName R16
SYMATTR Value 56
SYMBOL cap 288 -48 R0
SYMATTR InstName C12
SYMATTR Value .1µ
SYMBOL cap 176 -48 R0
SYMATTR InstName C13
SYMATTR Value 47µ
SYMBOL res 176 -256 R0
SYMATTR InstName R17
SYMATTR Value 47K
SYMBOL diode 576 -80 R90
WINDOW 0 0 32 VBottom 0
WINDOW 3 32 32 VTop 0
SYMATTR InstName D3
SYMATTR Value 1N4148
SYMBOL res 464 -80 R90
WINDOW 0 0 56 VBottom 0
WINDOW 3 32 56 VTop 0
SYMATTR InstName R18
SYMATTR Value 20
SYMBOL res 1360 -256 R0
SYMATTR InstName Rload
SYMATTR Value .5
SYMBOL ind 1120 -288 R270
WINDOW 0 32 56 VTop 0
WINDOW 3 5 56 VBottom 0
SYMATTR InstName L6
SYMATTR Value 100n
SYMATTR SpiceLine Rser=0.24m
TEXT 776 -312 Bottom 0 !K1 L1 L2 L3 1
TEXT 968 336 Bottom 0 !K2 L4 L5 1
TEXT 1296 664 Left 0 !.tran 7m startup
TEXT 744 488 Left 0 ;NOTES:\n - Substitued Parts for Simulation Purposes:\n   Q12/Q13, Q3, D2, and D7\n - If it is desired to see "trickle charge" start-up behavior, set\n   initial condition statement to ".ic V(Vcc)=0V" and the transient\n   statement to ".tran 1.24s startup"
TEXT 776 -344 Bottom 0 ;PA1477NL (Pulse)
TEXT 960 304 Bottom 0 ;PA0184 (Pulse)
TEXT -48 680 Left 0 ;Note:\n  If the simulation model is not found please update with the "Sync Release" command from the "Tools" menu.\n  It remains the customer's responsibility to verify proper and reliable operation in the actual application.\n  Component substitution and printed circuit board layout may significantly affect circuit performance or reliability.\n  Contact your local sales representative for assistance. This circuit is distributed to customers only for use with LTC parts.\n  Copyright © 2006 Linear Technology Inc. All rights reserved.
TEXT 688 -400 Bottom 0 ;DC894 - LT3825 - Synchronous Flyback Controller\nInput:  36V to 72V     Output: 3.3V @ 12A
TEXT 1296 704 Left 0 !.ic V(Vcc)=16V
TEXT 1296 744 Left 0 !.options trtol=7
LINE Normal 784 816 784 816
LINE Normal 752 -144 752 -144
LINE Normal 752 -144 752 -144
LINE Normal 752 -144 752 -144
LINE Normal 960 432 960 352 2
LINE Normal 960 432 960 432
LINE Normal 768 32 768 -240 2
RECTANGLE Normal 896 48 640 -384 2
RECTANGLE Normal 1072 480 848 272 2
