Version 4
SHEET 1 4012 1540
WIRE 1040 -336 928 -336
WIRE 1136 -336 1040 -336
WIRE 1232 -336 1136 -336
WIRE 1280 -336 1232 -336
WIRE 1984 -336 1280 -336
WIRE 2048 -336 1984 -336
WIRE 928 -320 928 -336
WIRE 1040 -304 1040 -336
WIRE 1280 -304 1280 -336
WIRE 2048 -304 2048 -336
WIRE 1136 -288 1136 -336
WIRE 1424 -288 1408 -288
WIRE 1520 -288 1488 -288
WIRE 1536 -288 1520 -288
WIRE 1632 -288 1616 -288
WIRE 1408 -224 1408 -288
WIRE 1520 -224 1520 -288
WIRE 1632 -224 1632 -288
WIRE 928 -208 928 -240
WIRE 1040 -208 1040 -240
WIRE 2048 -208 2048 -240
WIRE 1280 -160 1280 -224
WIRE 1344 -160 1280 -160
WIRE 1776 -160 1696 -160
WIRE 1856 -160 1776 -160
WIRE 1776 -144 1776 -160
WIRE 1856 -144 1856 -160
WIRE 1232 -64 1232 -336
WIRE 1344 -64 1232 -64
WIRE 1776 -64 1776 -80
WIRE 1776 -64 1696 -64
WIRE 1776 -48 1776 -64
WIRE 1856 -48 1856 -80
WIRE 1984 -48 1984 -336
WIRE 1232 32 1232 -64
WIRE 1344 32 1232 32
WIRE 1936 32 1696 32
WIRE 1136 128 1136 -208
WIRE 1344 128 1136 128
WIRE 1776 128 1776 16
WIRE 1776 128 1696 128
WIRE 1984 128 1984 48
WIRE 1984 128 1776 128
WIRE 2048 128 1984 128
WIRE 2176 128 2128 128
WIRE 2208 128 2176 128
WIRE 2320 128 2288 128
WIRE 2368 128 2320 128
WIRE 2480 128 2368 128
WIRE 2528 128 2480 128
WIRE 2624 128 2528 128
WIRE 2720 128 2624 128
WIRE 2816 128 2720 128
WIRE 1984 144 1984 128
WIRE 2528 160 2528 128
WIRE 2624 160 2624 128
WIRE 2720 160 2720 128
WIRE 2816 160 2816 128
WIRE 1344 224 1328 224
WIRE 1936 224 1696 224
WIRE 2528 256 2528 224
WIRE 2624 256 2624 224
WIRE 2720 256 2720 224
WIRE 2816 256 2816 240
WIRE 1216 320 864 320
WIRE 1344 320 1296 320
WIRE 1984 320 1984 240
WIRE 1984 320 1696 320
WIRE 1984 336 1984 320
WIRE 1760 416 1696 416
WIRE 1872 416 1760 416
WIRE 2176 416 2176 128
WIRE 2176 416 1952 416
WIRE 1760 432 1760 416
WIRE 2368 496 2368 128
WIRE 1344 512 1328 512
WIRE 1760 512 1760 496
WIRE 1760 512 1696 512
WIRE 1872 512 1760 512
WIRE 2320 512 2320 128
WIRE 2320 512 1952 512
WIRE 1232 608 1216 608
WIRE 1344 608 1312 608
WIRE 2368 608 2368 576
WIRE 2368 608 1696 608
WIRE 2368 624 2368 608
WIRE 1040 704 1008 704
WIRE 1168 704 1120 704
WIRE 1344 704 1168 704
WIRE 1712 704 1696 704
WIRE 1008 720 1008 704
WIRE 1168 720 1168 704
WIRE 2368 720 2368 704
WIRE 1008 800 1008 784
WIRE 1168 800 1168 784
WIRE 1264 800 1248 800
WIRE 1344 800 1328 800
WIRE 1712 800 1696 800
WIRE 1520 880 1520 864
WIRE 1408 912 1408 864
WIRE 1632 912 1632 864
WIRE 1408 1040 1408 976
WIRE 1520 1040 1520 1024
WIRE 1632 1040 1632 976
WIRE 864 1072 864 320
WIRE 2480 1072 2480 128
WIRE 2480 1072 864 1072
FLAG 1008 800 0
FLAG 1216 608 0
FLAG 1328 512 0
FLAG 1328 224 0
FLAG 1520 1040 0
FLAG 928 -208 0
FLAG 928 -336 IN
FLAG 1040 -208 0
FLAG 1712 800 0
FLAG 1712 704 0
FLAG 2368 720 0
FLAG 2816 128 OUT
FLAG 1632 1040 0
FLAG 1408 1040 0
FLAG 2720 256 0
FLAG 2048 -208 0
FLAG 1248 800 0
FLAG 1856 -48 0
FLAG 1168 800 0
FLAG 1984 336 0
FLAG 2528 256 0
FLAG 2624 256 0
FLAG 2816 256 0
SYMBOL res 1216 624 R270
WINDOW 0 32 56 VTop 2
WINDOW 3 0 56 VBottom 2
SYMATTR InstName R1
SYMATTR Value 105K
SYMBOL cap 1488 -304 R90
WINDOW 0 0 32 VBottom 2
WINDOW 3 32 32 VTop 2
SYMATTR InstName C1
SYMATTR Value 1µ
SYMBOL voltage 928 -336 R0
WINDOW 123 0 0 Left 2
WINDOW 39 24 124 Left 2
SYMATTR InstName V1
SYMATTR Value 12
SYMBOL cap 1840 -144 R0
SYMATTR InstName C2
SYMATTR Value 4.7µ
SYMBOL ind 2032 144 R270
WINDOW 0 32 56 VTop 2
WINDOW 3 5 56 VBottom 2
SYMATTR InstName L1
SYMATTR Value 2.2µ
SYMATTR SpiceLine Ipk=31.9 Rser=0.0023 Cpar=0
SYMBOL cap 1760 -48 R0
SYMATTR InstName C3
SYMATTR Value 1µ
SYMBOL res 1136 688 R90
WINDOW 0 0 56 VBottom 2
WINDOW 3 32 56 VTop 2
SYMATTR InstName R2
SYMATTR Value 13K
SYMBOL res 1504 864 R0
SYMATTR InstName R3
SYMATTR Value 1K
SYMBOL cap 1152 720 R0
SYMATTR InstName C5
SYMATTR Value 100p
SYMBOL cap 2032 -304 R0
SYMATTR InstName C6
SYMATTR Value 13.2µ
SYMATTR SpiceLine V=100 Irms=6.893 Rser=0.002
SYMBOL res 1312 304 R90
WINDOW 0 0 56 VBottom 2
WINDOW 3 32 56 VTop 2
SYMATTR InstName R4
SYMATTR Value 100K
SYMBOL cap 992 720 R0
SYMATTR InstName C7
SYMATTR Value 2.2n
SYMBOL LT3840 1520 320 R0
SYMATTR InstName U2
SYMBOL ind 1520 -272 R270
WINDOW 0 32 56 VTop 2
WINDOW 3 5 56 VBottom 2
SYMATTR InstName L2
SYMATTR Value 33µ
SYMATTR SpiceLine Ipk=0.6 Rser=1.0922 Rpar=3108.6 Cpar=0 mfg="Coilcraft" pn="ME3220-333"
SYMBOL diode 1760 -144 R0
SYMATTR InstName D1
SYMBOL cap 2512 160 R0
SYMATTR InstName C8
SYMATTR Value 44µ
SYMATTR SpiceLine V=6.3 Irms=0 Rser=0.0004 Lser=0
SYMBOL res 2304 112 R90
WINDOW 0 0 56 VBottom 2
WINDOW 3 32 56 VTop 2
SYMATTR InstName R5
SYMATTR Value 2.5m
SYMBOL res 2800 144 R0
SYMATTR InstName R6
SYMATTR Value 0.167
SYMBOL cap 1504 960 R0
SYMATTR InstName C9
SYMATTR Value 1n
SYMATTR SpiceLine V=50 Rser=0.002
SYMBOL res 2352 480 R0
SYMATTR InstName R7
SYMATTR Value 825K
SYMBOL res 1968 400 R90
WINDOW 0 0 56 VBottom 2
WINDOW 3 32 56 VTop 2
SYMATTR InstName R8
SYMATTR Value 12
SYMBOL res 1968 496 R90
WINDOW 0 0 56 VBottom 2
WINDOW 3 32 56 VTop 2
SYMATTR InstName R9
SYMATTR Value 12
SYMBOL cap 1744 432 R0
SYMATTR InstName C10
SYMATTR Value 10n
SYMBOL res 2352 608 R0
SYMATTR InstName R10
SYMATTR Value 499K
SYMBOL nmos 1936 -48 R0
SYMATTR InstName M1
SYMATTR Value BSC123N08NS3
SYMBOL nmos 1936 144 R0
SYMATTR InstName M2
SYMATTR Value BSC042NE7NS3
SYMBOL cap 1392 912 R0
SYMATTR InstName C11
SYMATTR Value 2.2n
SYMATTR SpiceLine V=50 Rser=0.002
SYMBOL cap 1616 912 R0
SYMATTR InstName C12
SYMATTR Value 1n
SYMATTR SpiceLine V=50 Rser=0.002
SYMBOL polcap 2608 160 R0
WINDOW 3 24 56 Left 2
SYMATTR Value 680µ
SYMATTR InstName C13
SYMATTR SpiceLine V=6.3 Irms=4.8 Rser=0.012 Lser=0 mfg="KEMET" pn="T510E687K006AS4115" type="Tantalum"
SYMATTR Description Capacitor
SYMATTR Type cap
SYMBOL polcap 1024 -304 R0
WINDOW 3 24 56 Left 2
SYMATTR Value 112µ
SYMATTR InstName C4
SYMATTR SpiceLine V=63 Irms=4.8 Rser=0.011
SYMATTR Description Capacitor
SYMATTR Type cap
SYMBOL polcap 2704 160 R0
WINDOW 3 24 56 Left 2
SYMATTR Value 680µ
SYMATTR InstName C14
SYMATTR SpiceLine V=6.3 Rser=0.012 Lser=0
SYMATTR Description Capacitor
SYMATTR Type cap
SYMBOL cap 1328 784 R90
WINDOW 0 0 32 VBottom 2
WINDOW 3 32 32 VTop 2
SYMATTR InstName C16
SYMATTR Value 10n
SYMBOL res 1120 -304 R0
SYMATTR InstName R12
SYMATTR Value 1Meg
SYMBOL res 1264 -320 R0
SYMATTR InstName R13
SYMATTR Value 1Meg
TEXT 2576 920 Left 2 !.tran 2.5m startup
TEXT 1536 -344 Bottom 2 ;LT3840 - Wide Input Range Synchronous Regulator Controller with Accurate Current Limit\nHigh Efficiency Synchronous Buck Converter\nInput: 4.5V to 60V       Output: 3.3V @ 20A, Fsw = 150kHz
TEXT 992 1096 Left 2 ;Note:\n  If the simulation model is not found please update with the "Sync Release" command from the "Tools" menu.\n  It remains the customer's responsibility to verify proper and reliable operation in the actual application.\n  Component substitution and printed circuit board layout may significantly affect circuit performance or reliability.\n  Contact your local sales representative for assistance. This circuit is distributed to customers only for use with LTC parts.\n  Copyright © 2014 Linear Technology Inc. All rights reserved.
TEXT 1216 664 Left 2 ;(150kHz)
