Version 4
SHEET 1 1800 772
WIRE -64 -32 -160 -32
WIRE 16 -32 -64 -32
WIRE 64 -32 16 -32
WIRE 608 -32 352 -32
WIRE -160 -16 -160 -32
WIRE -64 -16 -64 -32
WIRE 16 64 16 -32
WIRE 64 64 16 64
WIRE 400 64 352 64
WIRE -160 80 -160 64
WIRE -64 80 -64 48
WIRE 400 80 400 64
WIRE 400 160 400 144
WIRE 400 160 352 160
WIRE 480 160 400 160
WIRE 608 160 608 -32
WIRE 608 160 560 160
WIRE 688 160 608 160
WIRE 784 160 688 160
WIRE 400 176 400 160
WIRE 688 176 688 160
WIRE 784 176 784 160
WIRE 608 240 608 160
WIRE 608 240 528 240
WIRE -48 256 -64 256
WIRE 64 256 32 256
WIRE 400 256 400 240
WIRE 400 256 352 256
WIRE 528 256 528 240
WIRE 608 256 608 240
WIRE 688 272 688 240
WIRE 784 272 784 256
WIRE -32 352 -64 352
WIRE 64 352 32 352
WIRE 528 352 528 320
WIRE 528 352 352 352
WIRE 608 352 608 336
WIRE 608 352 528 352
WIRE 608 368 608 352
WIRE 208 416 208 400
WIRE 608 464 608 448
FLAG -160 80 0
FLAG -64 256 0
FLAG -64 352 0
FLAG 208 416 0
FLAG 608 464 0
FLAG 688 272 0
FLAG 784 272 0
FLAG -160 -32 IN
FLAG 784 160 OUT
FLAG -64 80 0
SYMBOL PowerProducts\\LT3980 208 160 R0
SYMATTR InstName U1
SYMBOL voltage -160 -32 R0
WINDOW 123 0 0 Left 0
WINDOW 39 0 0 Left 0
WINDOW 3 26 94 Left 0
SYMATTR InstName V1
SYMATTR Value 12
SYMBOL res 48 240 R90
WINDOW 0 0 56 VBottom 0
WINDOW 3 32 56 VTop 0
SYMATTR InstName R1
SYMATTR Value 97.6K
SYMBOL cap 32 336 R90
WINDOW 0 0 32 VBottom 0
WINDOW 3 32 32 VTop 0
WINDOW 39 60 32 VTop 0
SYMATTR InstName C1
SYMATTR Value 1000p
SYMATTR SpiceLine Rser=4.75k
SYMBOL cap 384 80 R0
SYMATTR InstName C2
SYMATTR Value .47µ
SYMBOL ind 464 176 R270
WINDOW 0 32 56 VTop 0
WINDOW 3 5 56 VBottom 0
SYMATTR InstName L1
SYMATTR Value 10µ
SYMATTR SpiceLine Rpar=2K
SYMBOL schottky 384 240 M180
WINDOW 0 24 62 Left 0
WINDOW 3 24 0 Left 0
SYMATTR InstName D1
SYMATTR Value MBRS360
SYMATTR Description Diode
SYMATTR Type diode
SYMBOL res 592 240 R0
SYMATTR InstName R2
SYMATTR Value 536K
SYMBOL res 592 352 R0
SYMATTR InstName R3
SYMATTR Value 100K
SYMBOL cap 672 176 R0
SYMATTR InstName C3
SYMATTR Value 47µ
SYMATTR SpiceLine Rser=5m
SYMBOL cap -80 -16 R0
WINDOW 0 27 17 Left 0
WINDOW 3 32 53 Left 0
SYMATTR InstName C4
SYMATTR Value 10µ
SYMBOL cap 512 256 R0
SYMATTR InstName C5
SYMATTR Value 22p
SYMBOL res 768 160 R0
SYMATTR InstName Rload
SYMATTR Value 2.5
TEXT 744 392 Left 0 !.tran 750u startup
TEXT -40 192 Left 0 ;400kHz
TEXT 208 -88 Bottom 0 ;LT3980 - 58V, 2A Step-Down Switching Regulator with 85µA Quiescent Current\nInput: 6.5V - 58V   Output: 5V @ 2A
TEXT -352 488 Left 0 ;Note:\n  If the simulation model is not found please update with the "Sync Release" command from the "Tools" menu.\n  It remains the customer's responsibility to verify proper and reliable operation in the actual application.\n  Component substitution and printed circuit board layout may significantly affect circuit performance or reliability.\n  Contact your local sales representative for assistance. This circuit is distributed to customers only for use with LTC parts.\n  Copyright © 2009 Linear Technology Inc. All rights reserved.
