Version 4
SHEET 1 2760 680
WIRE 1920 -192 1792 -192
WIRE 2048 -192 2000 -192
WIRE 1504 -128 1408 -128
WIRE 1792 -128 1792 -192
WIRE 1792 -128 1504 -128
WIRE 1824 -128 1792 -128
WIRE 1920 -128 1904 -128
WIRE 2096 -128 1920 -128
WIRE 2208 -128 2160 -128
WIRE 2272 -128 2208 -128
WIRE 2384 -128 2272 -128
WIRE 1408 -112 1408 -128
WIRE 1504 -112 1504 -128
WIRE 2384 -112 2384 -128
WIRE 2272 -96 2272 -128
WIRE 1792 -80 1792 -128
WIRE 1920 -80 1920 -128
WIRE 1408 -16 1408 -32
WIRE 1504 -16 1504 -32
WIRE 1696 -16 1504 -16
WIRE 2048 -16 2048 -192
WIRE 2048 -16 2016 -16
WIRE 2064 -16 2048 -16
WIRE 2144 -16 2128 -16
WIRE 2272 -16 2272 -32
WIRE 2384 -16 2384 -32
WIRE 1504 0 1504 -16
WIRE 2208 32 2208 -128
WIRE 1616 80 1600 80
WIRE 1696 80 1680 80
WIRE 2048 80 2016 80
WIRE 1504 96 1504 80
WIRE 1600 176 1584 176
WIRE 1696 176 1680 176
WIRE 2048 176 2048 80
WIRE 2048 176 2016 176
WIRE 1696 272 1680 272
WIRE 2208 272 2208 112
WIRE 2208 272 2016 272
WIRE 2208 288 2208 272
WIRE 1792 352 1792 336
WIRE 1920 352 1920 336
WIRE 2208 384 2208 368
FLAG 1584 176 0
FLAG 2208 384 0
FLAG 1792 352 0
FLAG 2272 -16 0
FLAG 1536 272 0
FLAG 2384 -16 0
FLAG 1408 -16 0
FLAG 1600 80 0
FLAG 2144 -16 0
FLAG 2384 -128 OUT
FLAG 1408 -128 IN
FLAG 1504 96 0
FLAG 1920 352 0
SYMBOL RES 1696 192 M270
WINDOW 0 32 56 VTop 0
WINDOW 3 0 56 VBottom 0
SYMATTR InstName R1
SYMATTR Value 41.2K
SYMBOL res 2192 272 R0
SYMATTR InstName R2
SYMATTR Value 15.8K
SYMBOL res 2192 16 R0
SYMATTR InstName R3
SYMATTR Value 105K
SYMBOL ind 1808 -112 R270
WINDOW 0 32 56 VTop 0
WINDOW 3 5 56 VBottom 0
SYMATTR InstName L1
SYMATTR Value 4.7µ
SYMATTR SpiceLine Rser=0.05
SYMBOL schottky 2096 -112 R270
WINDOW 0 32 32 VTop 0
WINDOW 3 -28 32 VTop 0
SYMATTR InstName D1
SYMATTR Value MBRS130L
SYMBOL res 1696 288 M270
WINDOW 0 32 56 VTop 0
WINDOW 3 0 56 VBottom 0
SYMATTR InstName R4
SYMATTR Value 10K
SYMBOL cap 1600 288 M270
WINDOW 0 32 32 VTop 0
WINDOW 3 0 32 VBottom 0
SYMATTR InstName C2
SYMATTR Value .01µ
SYMBOL VOLTAGE 1408 -128 R0
WINDOW 123 0 0 Left 0
WINDOW 39 0 0 Left 0
SYMATTR InstName V1
SYMATTR Value 5
SYMBOL cap 1680 64 R90
WINDOW 0 0 32 VBottom 0
WINDOW 3 32 32 VTop 0
SYMATTR InstName C4
SYMATTR Value .02µ
SYMBOL res 1488 -16 R0
SYMATTR InstName R5
SYMATTR Value 39.2K
SYMBOL res 1488 -128 R0
SYMATTR InstName R6
SYMATTR Value 49.9K
SYMBOL res 2368 -128 R0
SYMATTR InstName Rload
SYMATTR Value 15
SYMBOL PowerProducts\\LT3957 1856 128 R0
SYMATTR InstName U1
SYMBOL cap 2256 -96 R0
WINDOW 3 36 33 Left 0
WINDOW 40 27 57 Left 0
SYMATTR Value 22µ
SYMATTR SpiceLine2 x2
SYMATTR InstName C1
SYMATTR SpiceLine Rser=0.01
SYMBOL cap 2128 -32 R90
WINDOW 0 0 32 VBottom 0
WINDOW 3 32 32 VTop 0
SYMATTR InstName C3
SYMATTR Value 4.7µ
SYMBOL res 1904 -176 R270
WINDOW 0 32 56 VTop 0
WINDOW 3 0 56 VBottom 0
SYMATTR InstName R7
SYMATTR Value 10
TEXT 2328 360 Left 0 !.tran 3m startup
TEXT 1928 -248 Bottom 0 ;LT3957 - Boost, Flyback, SEPIC and Inverting Converter with 5A, 40V Switch \nBoost Topology, Input: 3V to 6V, Output: 12V @ 800mA
TEXT 1288 408 Left 0 ;Note:\n  If the simulation model is not found please update with the "Sync Release" command from the "Tools" menu.\n  It remains the customer's responsibility to verify proper and reliable operation in the actual application.\n  Component substitution and printed circuit board layout may significantly affect circuit performance or reliability.\n  Contact your local sales representative for assistance. This circuit is distributed to customers only for use with LTC parts.\n  Copyright © 2010 Linear Technology Inc. All rights reserved.
