Version 4
SHEET 1 2432 820
WIRE -320 -912 -432 -912
WIRE -144 -912 -320 -912
WIRE 112 -912 -144 -912
WIRE 304 -912 112 -912
WIRE 560 -912 304 -912
WIRE -432 -896 -432 -912
WIRE -320 -896 -320 -912
WIRE 112 -880 112 -912
WIRE 208 -880 208 -896
WIRE 304 -880 304 -912
WIRE -144 -816 -144 -912
WIRE -112 -816 -144 -816
WIRE 0 -816 -32 -816
WIRE 448 -816 416 -816
WIRE 560 -816 560 -912
WIRE 560 -816 528 -816
WIRE -432 -800 -432 -816
WIRE -320 -800 -320 -832
WIRE -240 -720 -400 -720
WIRE 0 -720 -240 -720
WIRE 592 -720 416 -720
WIRE 784 -720 592 -720
WIRE -240 -704 -240 -720
WIRE 592 -704 592 -720
WIRE -240 -624 -240 -640
WIRE -112 -624 -240 -624
WIRE 0 -624 -112 -624
WIRE 528 -624 416 -624
WIRE 592 -624 592 -640
WIRE 592 -624 528 -624
WIRE -240 -608 -240 -624
WIRE 592 -608 592 -624
WIRE 784 -592 784 -720
WIRE -400 -528 -400 -720
WIRE -240 -528 -240 -544
WIRE -112 -528 -112 -624
WIRE -96 -528 -112 -528
WIRE 0 -528 -16 -528
WIRE 432 -528 416 -528
WIRE 528 -528 528 -624
WIRE 528 -528 512 -528
WIRE 592 -528 592 -544
WIRE -400 -432 -400 -464
WIRE -400 -432 -528 -432
WIRE -272 -432 -400 -432
WIRE -208 -432 -272 -432
WIRE -96 -432 -208 -432
WIRE 0 -432 -96 -432
WIRE 528 -432 416 -432
WIRE 624 -432 528 -432
WIRE 736 -432 624 -432
WIRE 784 -432 784 -528
WIRE 784 -432 736 -432
WIRE 944 -432 784 -432
WIRE -528 -416 -528 -432
WIRE -208 -416 -208 -432
WIRE -96 -416 -96 -432
WIRE 528 -416 528 -432
WIRE 624 -416 624 -432
WIRE 944 -416 944 -432
WIRE -400 -400 -400 -432
WIRE 784 -400 784 -432
WIRE 0 -336 -16 -336
WIRE 432 -336 416 -336
WIRE -528 -320 -528 -336
WIRE -400 -320 -400 -336
WIRE -208 -320 -208 -336
WIRE -96 -320 -96 -352
WIRE -96 -320 -208 -320
WIRE -16 -320 -16 -336
WIRE -16 -320 -96 -320
WIRE 432 -320 432 -336
WIRE 528 -320 528 -352
WIRE 528 -320 432 -320
WIRE 624 -320 624 -336
WIRE 624 -320 528 -320
WIRE 784 -320 784 -336
WIRE 944 -320 944 -336
WIRE -208 -304 -208 -320
WIRE 624 -304 624 -320
WIRE -16 -240 -16 -320
WIRE 0 -240 -16 -240
WIRE 432 -240 432 -320
WIRE 432 -240 416 -240
WIRE -208 -208 -208 -224
WIRE 624 -208 624 -224
WIRE -272 -144 -272 -432
WIRE -112 -144 -272 -144
WIRE 0 -144 -32 -144
WIRE 448 -144 416 -144
WIRE 736 -144 736 -432
WIRE 736 -144 528 -144
WIRE 0 -48 -16 -48
WIRE 432 -48 416 -48
WIRE 512 -48 496 -48
WIRE -256 48 -304 48
WIRE -128 48 -176 48
WIRE 0 48 -128 48
WIRE 576 48 416 48
WIRE 640 48 576 48
WIRE 768 48 720 48
WIRE -304 64 -304 48
WIRE -128 64 -128 48
WIRE 576 64 576 48
WIRE 768 64 768 48
WIRE -304 144 -304 128
WIRE -128 144 -128 128
WIRE 0 144 -80 144
WIRE 496 144 416 144
WIRE 576 144 576 128
WIRE 768 144 768 128
WIRE -80 160 -80 144
WIRE 496 160 496 144
WIRE 112 224 112 208
WIRE 208 224 208 208
WIRE 304 224 304 208
WIRE -80 256 -80 240
WIRE 496 256 496 240
WIRE 112 320 112 304
WIRE 304 320 304 304
FLAG -432 -800 0
FLAG -320 -800 0
FLAG 208 224 0
FLAG -208 -208 0
FLAG -240 -528 0
FLAG -400 -320 0
FLAG -528 -320 0
FLAG -528 -432 OUT2
FLAG -304 144 0
FLAG -432 -912 IN
FLAG -80 -48 0
FLAG -128 144 0
FLAG 624 -208 0
FLAG 592 -528 0
FLAG 784 -320 0
FLAG 944 -320 0
FLAG 944 -432 OUT1
FLAG 768 144 0
FLAG 512 -48 0
FLAG 576 144 0
FLAG -80 256 0
FLAG 112 320 0
FLAG 304 320 0
FLAG 496 256 0
SYMBOL VOLTAGE -432 -912 R0
WINDOW 123 0 0 Left 2
WINDOW 39 0 0 Left 2
SYMATTR InstName V1
SYMATTR Value 12
SYMBOL cap -336 -896 R0
SYMATTR InstName C1
SYMATTR Value 10µ
SYMBOL cap -256 -704 R0
WINDOW 0 40 19 Left 2
WINDOW 3 35 50 Left 2
SYMATTR InstName C2
SYMATTR Value .47µ
SYMBOL ind -112 -512 R270
WINDOW 0 32 56 VTop 2
WINDOW 3 5 56 VBottom 2
SYMATTR InstName L1
SYMATTR Value 10µ
SYMBOL RES -224 -432 R0
SYMATTR InstName R1
SYMATTR Value 24.9K
SYMBOL res -224 -320 R0
SYMATTR InstName R2
SYMATTR Value 8.06K
SYMBOL schottky -256 -544 M180
WINDOW 0 42 54 Left 2
WINDOW 3 24 0 Left 2
SYMATTR InstName D1
SYMATTR Value MBRS340
SYMBOL schottky -416 -464 M180
WINDOW 0 24 64 Left 2
WINDOW 3 24 0 Left 2
SYMATTR InstName D2
SYMATTR Value PMEG4005AEA
SYMATTR Description Diode
SYMATTR Type diode
SYMBOL cap -416 -400 R0
SYMATTR InstName C3
SYMATTR Value 100µ
SYMBOL res -128 -128 R270
WINDOW 0 32 56 VTop 2
WINDOW 3 0 56 VBottom 2
SYMATTR InstName R3
SYMATTR Value 100K
SYMBOL res -160 32 R90
WINDOW 3 32 56 VTop 2
WINDOW 0 0 56 VBottom 2
SYMATTR Value 30.0K
SYMATTR InstName R4
SYMBOL cap -320 64 R0
SYMATTR Value 680p
SYMATTR InstName C4
SYMBOL cap -112 -416 R0
SYMATTR InstName C5
SYMATTR Value 22p
SYMBOL res -544 -432 R0
SYMATTR InstName Rload1
SYMATTR Value 1.65
SYMBOL res 96 208 R0
SYMATTR InstName R5
SYMATTR Value 7.32K
SYMBOL res 288 208 R0
SYMATTR InstName R6
SYMATTR Value 20.0K
SYMBOL res -96 144 R0
SYMATTR InstName R7
SYMATTR Value 100K
SYMBOL res 480 144 R0
SYMATTR InstName R8
SYMATTR Value 100K
SYMBOL cap -16 -64 R90
WINDOW 0 0 32 VBottom 2
WINDOW 3 32 32 VTop 2
SYMATTR InstName C6
SYMATTR Value 1n
SYMBOL cap -144 64 R0
SYMATTR InstName C7
SYMATTR Value 33p
SYMBOL cap 576 -704 R0
WINDOW 0 40 19 Left 2
WINDOW 3 35 50 Left 2
SYMATTR InstName C8
SYMATTR Value .47µ
SYMBOL ind 528 -512 M270
WINDOW 0 32 56 VTop 2
WINDOW 3 5 56 VBottom 2
SYMATTR InstName L2
SYMATTR Value 22µ
SYMBOL RES 608 -432 R0
SYMATTR InstName R9
SYMATTR Value 42.2K
SYMBOL res 608 -320 R0
SYMATTR InstName R10
SYMATTR Value 8.06K
SYMBOL schottky 576 -544 M180
WINDOW 0 42 54 Left 2
WINDOW 3 24 0 Left 2
SYMATTR InstName D3
SYMATTR Value MBRS340
SYMBOL schottky 768 -528 M180
WINDOW 0 24 64 Left 2
WINDOW 3 24 0 Left 2
SYMATTR InstName D4
SYMATTR Value PMEG4005AEA
SYMATTR Description Diode
SYMATTR Type diode
SYMBOL cap 768 -400 R0
SYMATTR InstName C9
SYMATTR Value 100µ
SYMBOL res 544 -128 M270
WINDOW 0 32 56 VTop 2
WINDOW 3 0 56 VBottom 2
SYMATTR InstName R11
SYMATTR Value 100K
SYMBOL res 624 32 M90
WINDOW 3 32 56 VTop 2
WINDOW 0 0 56 VBottom 2
SYMATTR Value 30.0K
SYMATTR InstName R12
SYMBOL cap 752 64 R0
SYMATTR Value 680p
SYMATTR InstName C10
SYMBOL cap 512 -416 R0
SYMATTR InstName C11
SYMATTR Value 22p
SYMBOL res 928 -432 R0
SYMATTR InstName Rload2
SYMATTR Value 2.5
SYMBOL cap 432 -64 M90
WINDOW 0 0 32 VBottom 2
WINDOW 3 32 32 VTop 2
SYMATTR InstName C12
SYMATTR Value 1n
SYMBOL cap 560 64 R0
SYMATTR InstName C13
SYMATTR Value 33p
SYMBOL res -16 -832 R90
WINDOW 0 0 56 VBottom 2
WINDOW 3 32 56 VTop 2
SYMATTR InstName R13
SYMATTR Value 1K
SYMBOL res 432 -832 M90
WINDOW 0 0 56 VBottom 2
WINDOW 3 32 56 VTop 2
SYMATTR InstName R14
SYMATTR Value 1K
SYMBOL PowerProducts\\LT3992 208 -336 R0
SYMATTR InstName U2
TEXT -456 328 Left 2 ;Note:\n  If the simulation model is not found please update with the "Sync Release" command from the "Tools" menu.\n  It remains the customer's responsibility to verify proper and reliable operation in the actual application.\n  Component substitution and printed circuit board layout may significantly affect circuit performance or reliability.\n  Contact your local sales representative for assistance. This circuit is distributed to customers only for use with LTC parts.\n  Copyright © 2012 Linear Technology Inc. All rights reserved.
TEXT 736 240 Left 2 !.tran 500u startup
TEXT 208 -920 Bottom 2 ;LT3992 - Monolithic Dual Tracking 3A Step-Down Switching Regulator\nFMEA Fault Tolerant 5V/2A and 3.3V/2A Dual Converter\nInput: 7V to 60V       Outputs: 5V @ 2A & 3.3V @ 2A
