Version 4
SHEET 1 1400 764
WIRE -160 -96 -448 -96
WIRE -48 -96 -160 -96
WIRE 224 -96 -48 -96
WIRE 256 -96 224 -96
WIRE 400 -96 336 -96
WIRE 448 -96 400 -96
WIRE 560 -96 512 -96
WIRE 624 -96 560 -96
WIRE 736 -96 624 -96
WIRE -448 -80 -448 -96
WIRE 624 -80 624 -96
WIRE 736 -80 736 -96
WIRE -160 -64 -160 -96
WIRE -48 -64 -48 -96
WIRE 224 -32 224 -96
WIRE -448 16 -448 0
WIRE 624 16 624 -16
WIRE 736 16 736 0
WIRE -160 32 -160 16
WIRE 64 32 -160 32
WIRE 432 32 384 32
WIRE -160 64 -160 32
WIRE 432 64 432 32
WIRE -48 128 -48 16
WIRE 64 128 -48 128
WIRE 400 128 400 -96
WIRE 400 128 384 128
WIRE 560 192 560 -96
WIRE 560 192 480 192
WIRE 560 208 560 192
WIRE -160 224 -160 144
WIRE -80 224 -160 224
WIRE 64 224 -16 224
WIRE 480 224 480 192
WIRE 480 224 384 224
WIRE 560 304 560 288
WIRE 560 304 512 304
WIRE -160 320 -160 224
WIRE -80 320 -160 320
WIRE 64 320 0 320
WIRE 512 320 512 304
WIRE 512 320 384 320
WIRE 560 320 560 304
WIRE -160 416 -160 320
WIRE -80 416 -160 416
WIRE 64 416 -16 416
WIRE 432 416 432 128
WIRE 432 416 384 416
WIRE 560 416 560 400
WIRE 560 416 432 416
WIRE 224 496 224 480
WIRE -160 528 -160 416
WIRE 432 528 432 416
WIRE 432 528 -160 528
FLAG 224 496 0
FLAG -448 -96 IN
FLAG 624 16 0
FLAG 736 -96 OUT
FLAG -448 16 0
FLAG 736 16 0
SYMBOL cap -16 400 R90
WINDOW 39 55 31 VTop 2
WINDOW 0 0 32 VBottom 2
WINDOW 3 32 32 VTop 2
SYMATTR SpiceLine Rser=10.5K
SYMATTR InstName C1
SYMATTR Value 18n
SYMBOL res 16 304 R90
WINDOW 0 0 56 VBottom 2
WINDOW 3 32 56 VTop 2
SYMATTR InstName R1
SYMATTR Value 27.4K
SYMBOL cap -16 208 R90
WINDOW 0 0 32 VBottom 2
WINDOW 3 32 32 VTop 2
SYMATTR InstName C2
SYMATTR Value .05µ
SYMBOL voltage -448 -96 R0
WINDOW 123 0 0 Left 2
WINDOW 39 0 0 Left 2
WINDOW 0 29 24 Left 2
SYMATTR InstName V1
SYMATTR Value PWL(0 0 .1m 10)
SYMBOL cap 416 64 R0
SYMATTR InstName C3
SYMATTR Value 4.7µ
SYMBOL res -176 -80 R0
SYMATTR InstName R2
SYMATTR Value 200K
SYMBOL res -176 48 R0
SYMATTR InstName R3
SYMATTR Value 332K
SYMBOL res -64 -80 R0
SYMATTR InstName R4
SYMATTR Value 150K
SYMBOL ind2 352 -80 M270
WINDOW 0 32 56 VTop 2
WINDOW 3 5 56 VBottom 2
SYMATTR InstName L1
SYMATTR Value 3.3µ
SYMATTR Type ind
SYMATTR SpiceLine Rser=25m Cpar=50p
SYMBOL schottky 448 -80 R270
WINDOW 0 32 32 VTop 2
WINDOW 3 0 32 VBottom 2
SYMATTR InstName D1
SYMATTR Value DFLS220L
SYMATTR Description Diode
SYMATTR Type diode
SYMBOL res 544 192 R0
SYMATTR InstName R5
SYMATTR Value 102K
SYMBOL res 544 304 R0
SYMATTR InstName R6
SYMATTR Value 15.8K
SYMBOL PowerProducts\\LT3959 224 224 R0
SYMATTR InstName U1
SYMBOL cap 608 -80 R0
WINDOW 123 25 59 Left 2
WINDOW 3 37 34 Left 2
SYMATTR Value2 x4
SYMATTR Value 22µ
SYMATTR InstName C4
SYMATTR SpiceLine Rser=2m
SYMBOL res 720 -96 R0
SYMATTR InstName Rload
SYMATTR Value 12
TEXT 592 480 Left 2 !.tran 5m
TEXT 160 -152 Bottom 2 ;LT3959 - Wide Input Voltage Range Boost/SEPIC/Inverting Converter with 6A, 40V Switch\nWide Input Voltage Range Boost Converter\nInput: 2V to 10V       Output: 12V @ .5A to 2A ( 0.5A @ 2Vin, 1.0A @ 5Vin, 2.0A @ 9Vin)
TEXT -488 528 Left 2 ;Note:\n  To reduce simulation time, a smaller SS capacitor (C2) was used. Typical value should be .33µF.\n  If the simulation model is not found please update with the "Sync Release" command from the "Tools" menu.\n  It remains the customer's responsibility to verify proper and reliable operation in the actual application.\n  Component substitution and printed circuit board layout may significantly affect circuit performance or reliability.\n  Contact your local sales representative for assistance. This circuit is distributed to customers only for use with LTC parts.\n  Copyright © 2012 Linear Technology Inc. All rights reserved.
