Version 4
SHEET 1 1344 980
WIRE -48 -240 -320 -240
WIRE 96 -240 -48 -240
WIRE 192 -240 96 -240
WIRE 288 -240 192 -240
WIRE 304 -240 288 -240
WIRE 432 -240 384 -240
WIRE 544 -240 512 -240
WIRE 592 -240 544 -240
WIRE 704 -240 656 -240
WIRE 768 -240 704 -240
WIRE -320 -224 -320 -240
WIRE -48 -224 -48 -240
WIRE 768 -224 768 -240
WIRE 96 -192 96 -240
WIRE 192 -192 192 -240
WIRE 288 -192 288 -240
WIRE 384 -192 384 -240
WIRE -48 -144 -48 -160
WIRE 768 -144 768 -160
WIRE -320 -128 -320 -144
WIRE 32 -128 16 -128
WIRE 544 -128 544 -240
WIRE 544 -128 448 -128
WIRE 32 -32 16 -32
WIRE 464 -32 448 -32
WIRE 16 64 16 -32
WIRE 32 64 16 64
WIRE 528 64 528 48
WIRE 528 64 448 64
WIRE 608 64 528 64
WIRE 704 64 704 -240
WIRE 704 64 688 64
WIRE 16 160 16 64
WIRE 32 160 16 160
WIRE 704 160 704 64
WIRE 704 160 448 160
WIRE 32 256 16 256
WIRE 704 256 704 240
WIRE 704 256 448 256
WIRE 704 336 704 256
WIRE -48 352 -64 352
WIRE 32 352 16 352
WIRE 656 352 448 352
WIRE -64 448 -96 448
WIRE 32 448 16 448
WIRE 464 448 448 448
WIRE 704 448 704 432
WIRE -96 544 -96 448
WIRE -64 544 -96 544
WIRE 32 544 16 544
WIRE 480 544 448 544
WIRE 496 544 480 544
WIRE 576 544 560 544
WIRE 704 560 704 512
WIRE 192 624 192 608
WIRE 288 624 288 608
WIRE 384 624 384 608
WIRE 288 720 288 704
WIRE 384 720 384 688
WIRE 192 784 192 768
WIRE -96 816 -96 544
WIRE 480 816 480 544
WIRE 480 816 -96 816
FLAG 464 -32 0
FLAG 768 -144 0
FLAG -320 -128 0
FLAG 16 -128 0
FLAG -64 352 0
FLAG 288 720 0
FLAG 384 720 0
FLAG 576 544 0
FLAG 704 560 0
FLAG 528 -32 0
FLAG -320 -240 IN
FLAG 704 -240 OUT
FLAG -48 -144 0
FLAG 192 784 0
FLAG 464 448 0
SYMBOL PowerProducts\\LT3952 240 208 R0
SYMATTR InstName U1
SYMBOL voltage -320 -240 R0
WINDOW 123 24 138 Left 2
WINDOW 39 24 117 Left 2
SYMATTR Value PWL(0 0 200u 12)
SYMATTR InstName V1
SYMBOL res 288 -224 R270
WINDOW 0 32 56 VTop 2
WINDOW 3 0 56 VBottom 2
SYMATTR InstName R6
SYMATTR Value 15m
SYMBOL ind 416 -224 R270
WINDOW 0 32 56 VTop 2
WINDOW 3 5 56 VBottom 2
SYMATTR InstName L1
SYMATTR Value 15µ
SYMATTR SpiceLine Rser=.1 Rpar=2000
SYMBOL schottky 592 -224 R270
WINDOW 0 32 32 VTop 2
WINDOW 3 0 32 VBottom 2
SYMATTR InstName D1
SYMATTR Value 30BQ060
SYMATTR Description Diode
SYMATTR Type diode
SYMBOL cap 16 336 R90
WINDOW 0 0 32 VBottom 2
WINDOW 3 32 32 VTop 2
SYMATTR InstName C6
SYMATTR Value .47µ
SYMBOL res 272 608 R0
SYMATTR InstName R2
SYMATTR Value 287K
SYMBOL cap 368 624 R0
SYMATTR InstName C4
SYMATTR Value .047µ
SYMBOL cap 496 560 R270
WINDOW 0 32 32 VTop 2
WINDOW 3 0 32 VBottom 2
SYMATTR InstName C5
SYMATTR Value 2.2µ
SYMBOL LED 688 448 R0
WINDOW 123 24 85 Left 2
SYMATTR Value2 n=15
SYMATTR InstName LED1
SYMATTR Value LXHL-BW02
SYMATTR Description Diode
SYMATTR Type diode
SYMBOL pmos 656 432 M180
WINDOW 0 60 76 Left 2
WINDOW 3 59 40 Left 2
SYMATTR InstName M1
SYMATTR Value Si7113DN
SYMBOL res 688 144 R0
SYMATTR InstName R1
SYMATTR Value .75
SYMBOL res 512 64 M180
WINDOW 0 36 76 Left 2
WINDOW 3 36 40 Left 2
SYMATTR InstName R5
SYMATTR Value 22.6K
SYMBOL res 704 48 R90
WINDOW 0 0 56 VBottom 2
WINDOW 3 32 56 VTop 2
SYMATTR InstName R4
SYMATTR Value 1Meg
SYMBOL cap -64 -224 R0
SYMATTR InstName C1
SYMATTR Value 10µ
SYMBOL res 176 608 R0
SYMATTR InstName R3
SYMATTR Value 3K
SYMBOL cap 176 704 R0
SYMATTR Value 4.7n
SYMATTR InstName C3
SYMBOL cap 752 -224 R0
SYMATTR InstName C2
SYMATTR Value 4.7µ
SYMATTR SpiceLine Rser=.025
SYMBOL res -80 464 R270
WINDOW 0 32 56 VTop 2
WINDOW 3 0 56 VBottom 2
SYMATTR InstName R7
SYMATTR Value 100K
SYMBOL res -80 560 R270
WINDOW 0 32 56 VTop 2
WINDOW 3 0 56 VBottom 2
SYMATTR InstName R8
SYMATTR Value 100K
TEXT 608 656 Left 2 !.tran 2.5m startup
TEXT 296 -304 Bottom 2 ;LT3952 - 60V LED Driver with 4A Switch Current\nShort-Circuit Robust Boost LED Driver\nInput: 7V to 42V     Output: 50V LED String @ 333mA Fsw = 350kHz
TEXT -400 824 Left 2 ;Note:\n  If the simulation model is not found please update with the "Sync Release" command from the "Tools" menu.\n  It remains the customer's responsibility to verify proper and reliable operation in the actual application.\n  Component substitution and printed circuit board layout may significantly affect circuit performance or reliability.\n  Contact your local sales representative for assistance. This circuit is distributed to customers only for use with LTC parts.\n  Copyright © 2015 Linear Technology Inc. All rights reserved.
