Version 4
SHEET 1 3896 1620
WIRE 2144 784 2032 784
WIRE 2352 784 2144 784
WIRE 2512 784 2352 784
WIRE 2640 784 2512 784
WIRE 2032 800 2032 784
WIRE 2512 800 2512 784
WIRE 2640 800 2640 784
WIRE 2144 816 2144 784
WIRE 2352 864 2352 784
WIRE 2368 864 2352 864
WIRE 3072 864 2784 864
WIRE 2032 896 2032 880
WIRE 2144 896 2144 880
WIRE 2240 944 2208 944
WIRE 2368 944 2304 944
WIRE 2848 944 2784 944
WIRE 2944 944 2912 944
WIRE 1968 1024 1840 1024
WIRE 2064 1024 1968 1024
WIRE 2112 1024 2064 1024
WIRE 2208 1024 2208 944
WIRE 2208 1024 2192 1024
WIRE 2368 1024 2208 1024
WIRE 2944 1024 2944 944
WIRE 2944 1024 2784 1024
WIRE 2960 1024 2944 1024
WIRE 3072 1024 3072 864
WIRE 3072 1024 3040 1024
WIRE 3168 1024 3072 1024
WIRE 3248 1024 3168 1024
WIRE 3344 1024 3248 1024
WIRE 1840 1040 1840 1024
WIRE 3248 1040 3248 1024
WIRE 3344 1040 3344 1024
WIRE 1968 1056 1968 1024
WIRE 3072 1072 3072 1024
WIRE 3168 1072 3168 1024
WIRE 2064 1088 2064 1024
WIRE 2208 1104 2208 1024
WIRE 2240 1104 2208 1104
WIRE 2368 1104 2304 1104
WIRE 2848 1104 2784 1104
WIRE 2944 1104 2944 1024
WIRE 2944 1104 2912 1104
WIRE 1840 1136 1840 1120
WIRE 1968 1136 1968 1120
WIRE 3248 1136 3248 1104
WIRE 3344 1136 3344 1120
WIRE 2064 1184 2064 1168
WIRE 2368 1184 2064 1184
WIRE 3072 1184 3072 1152
WIRE 3072 1184 2784 1184
WIRE 3168 1184 3168 1136
WIRE 3168 1184 3072 1184
WIRE 2064 1200 2064 1184
WIRE 3072 1200 3072 1184
WIRE 2240 1264 2224 1264
WIRE 2368 1264 2304 1264
WIRE 2832 1264 2784 1264
WIRE 2912 1264 2896 1264
WIRE 2064 1296 2064 1280
WIRE 3072 1296 3072 1280
WIRE 2512 1344 2512 1328
WIRE 2640 1344 2640 1328
WIRE 2640 1440 2640 1424
FLAG 2032 896 0
FLAG 2512 1344 0
FLAG 3072 1296 0
FLAG 3248 1136 0
FLAG 3344 1136 0
FLAG 3344 1024 OUT2
FLAG 2064 1296 0
FLAG 1968 1136 0
FLAG 1840 1024 OUT1
FLAG 2032 784 IN
FLAG 2640 1440 0
FLAG 2912 1264 0
FLAG 2224 1264 0
FLAG 2144 896 0
FLAG 1840 1136 0
SYMBOL VOLTAGE 2032 784 R0
WINDOW 123 0 0 Left 2
WINDOW 39 0 0 Left 2
SYMATTR InstName V1
SYMATTR Value 12
SYMBOL cap 2848 960 R270
WINDOW 0 32 32 VTop 2
WINDOW 3 0 32 VBottom 2
SYMATTR InstName C1
SYMATTR Value .22µ
SYMBOL ind 2944 1040 R270
WINDOW 0 32 56 VTop 2
WINDOW 3 5 56 VBottom 2
SYMATTR InstName L2
SYMATTR Value 15µ
SYMBOL RES 3056 1056 R0
SYMATTR InstName R1
SYMATTR Value 34K
SYMBOL res 3056 1184 R0
SYMATTR InstName R2
SYMATTR Value 10K
SYMBOL schottky 2848 1088 M90
WINDOW 0 0 32 VBottom 2
WINDOW 3 32 32 VTop 2
SYMATTR InstName D2
SYMATTR Value PMEG6010AED
SYMBOL cap 3232 1040 R0
SYMATTR InstName C2
SYMATTR Value 47µ
SYMBOL cap 2304 928 R90
WINDOW 0 0 32 VBottom 2
WINDOW 3 32 32 VTop 2
SYMATTR InstName C3
SYMATTR Value .22µ
SYMBOL ind 2208 1040 M270
WINDOW 0 32 56 VTop 2
WINDOW 3 5 56 VBottom 2
SYMATTR InstName L1
SYMATTR Value 22µ
SYMBOL RES 2048 1072 R0
SYMATTR InstName R4
SYMATTR Value 57.6K
SYMBOL res 2048 1184 R0
SYMATTR InstName R5
SYMATTR Value 10.2K
SYMBOL schottky 2304 1120 M270
WINDOW 0 32 32 VTop 2
WINDOW 3 0 32 VBottom 2
SYMATTR InstName D1
SYMATTR Value PMEG6010AED
SYMBOL cap 1952 1056 R0
SYMATTR InstName C4
SYMATTR Value 47µ
SYMBOL res 2624 1328 R0
SYMATTR InstName R7
SYMATTR Value 200K
SYMBOL cap 2304 1248 R90
WINDOW 0 0 32 VBottom 2
WINDOW 3 32 32 VTop 2
SYMATTR InstName C5
SYMATTR Value 1000p
SYMBOL cap 2832 1280 R270
WINDOW 0 32 32 VTop 2
WINDOW 3 0 32 VBottom 2
SYMATTR InstName C6
SYMATTR Value 1000p
SYMBOL PowerProducts\\LT3988 2576 1072 R0
SYMATTR InstName U1
SYMBOL cap 3152 1072 R0
SYMATTR InstName C7
SYMATTR Value 22p
SYMBOL res 1824 1024 R0
SYMATTR InstName Rload1
SYMATTR Value 5
SYMBOL res 3328 1024 R0
SYMATTR InstName Rload2
SYMATTR Value 3.3
SYMBOL cap 2128 816 R0
SYMATTR InstName C8
SYMATTR Value 4.7µ
TEXT 3024 1376 Left 2 !.tran 1.5m startup
TEXT 2592 776 Bottom 2 ;LT3988 - Dual 60V Monolithic 1A Step-Down Switching Regulator\nDual 60V Step-Down Regulator\nInput: 7V to 60V      Output: 5V @ 1A & 3.3V @ 1A
TEXT 1896 1464 Left 2 ;Note:\n  If the simulation model is not found please update with the "Sync Release" command from the "Tools" menu.\n  It remains the customer's responsibility to verify proper and reliable operation in the actual application.\n  Component substitution and printed circuit board layout may significantly affect circuit performance or reliability.\n  Contact your local sales representative for assistance. This circuit is distributed to customers only for use with LTC parts.\n  Copyright  © 2012 Linear Technology Inc. All rights reserved.
