Version 4
SHEET 1 1732 1012
WIRE -64 -128 -144 -128
WIRE 144 -128 -64 -128
WIRE 176 -128 144 -128
WIRE 272 -128 256 -128
WIRE -144 -112 -144 -128
WIRE 144 -80 144 -128
WIRE 272 -80 272 -128
WIRE -144 -16 -144 -32
WIRE -64 -16 -64 -128
WIRE 48 -16 -64 -16
WIRE 384 -16 368 -16
WIRE 464 -16 384 -16
WIRE 576 -16 464 -16
WIRE 576 0 576 -16
WIRE -64 80 -64 -16
WIRE 48 80 -64 80
WIRE 464 80 464 64
WIRE 464 80 368 80
WIRE 576 80 576 64
WIRE 464 96 464 80
WIRE -64 176 -64 80
WIRE 48 176 -64 176
WIRE 384 176 384 -16
WIRE 384 176 368 176
WIRE 464 192 464 176
WIRE -64 272 -64 176
WIRE -48 272 -64 272
WIRE 48 272 32 272
WIRE 624 272 368 272
WIRE 752 272 624 272
WIRE 624 288 624 272
WIRE 752 288 752 272
WIRE 976 304 800 304
WIRE 1088 304 1056 304
WIRE -64 368 -64 272
WIRE -48 368 -64 368
WIRE 48 368 32 368
WIRE 368 384 368 368
WIRE 384 384 368 384
WIRE 480 384 464 384
WIRE 624 384 624 352
WIRE 752 384 752 368
WIRE 752 384 624 384
WIRE 624 400 624 384
WIRE -48 464 -64 464
WIRE 48 464 32 464
WIRE 368 480 368 464
WIRE 384 480 368 480
WIRE 480 480 464 480
WIRE 144 544 144 528
WIRE 272 544 272 528
FLAG 144 544 0
FLAG 272 544 0
FLAG -144 -16 0
FLAG -64 464 0
FLAG 464 192 0
FLAG 576 80 0
FLAG 480 480 0
FLAG 480 384 0
FLAG 624 400 0
FLAG 800 352 0
FLAG 1088 304 0
FLAG -144 -128 IN
FLAG 576 -16 OUT
SYMBOL LT3905 208 224 R0
SYMATTR InstName U1
SYMBOL voltage -144 -128 R0
SYMATTR InstName V1
SYMATTR Value 5
SYMBOL ind 160 -112 R270
WINDOW 0 32 56 VTop 2
WINDOW 3 5 56 VBottom 2
SYMATTR InstName L1
SYMATTR Value 10µ
SYMATTR SpiceLine Rser=80m Rpar=10K
SYMBOL res 48 448 R90
WINDOW 0 0 56 VBottom 2
WINDOW 3 32 56 VTop 2
SYMATTR InstName R1
SYMATTR Value 4.99K
SYMBOL res 448 -32 R0
SYMATTR InstName R2
SYMATTR Value 634K
SYMBOL res 448 80 R0
SYMATTR InstName R3
SYMATTR Value 15K
SYMBOL cap 560 0 R0
SYMATTR InstName C1
SYMATTR Value 220n
SYMBOL res 368 496 R270
WINDOW 0 32 56 VTop 2
WINDOW 3 0 56 VBottom 2
SYMATTR InstName R4
SYMATTR Value 1Meg
SYMBOL res 368 400 R270
WINDOW 0 32 56 VTop 2
WINDOW 3 0 56 VBottom 2
SYMATTR InstName R5
SYMATTR Value 9.09K
SYMBOL diode 608 352 M180
WINDOW 0 30 59 Left 2
WINDOW 3 33 -2 Left 2
SYMATTR InstName D1
SYMATTR Value APD
SYMBOL g2 752 384 R180
WINDOW 0 -14 103 Right 2
WINDOW 3 -10 9 Right 2
SYMATTR InstName G1
SYMATTR Value 1m
SYMBOL voltage 960 304 R270
WINDOW 0 32 56 VTop 2
WINDOW 3 -32 56 VBottom 2
WINDOW 123 -74 56 VBottom 2
WINDOW 39 -53 56 VBottom 2
SYMATTR InstName V2
SYMATTR Value PULSE(.001m 1 1m 1u 1u .5m 1m)
SYMBOL res 48 256 R90
WINDOW 0 0 56 VBottom 2
WINDOW 3 32 56 VTop 2
SYMATTR InstName R6
SYMATTR Value 100K
SYMBOL res -64 384 R270
WINDOW 0 32 56 VTop 2
WINDOW 3 0 56 VBottom 2
SYMATTR InstName R7
SYMATTR Value 100K
TEXT 656 416 Left 2 !.model APD D(Is=10n Cjo=10p)
TEXT 600 496 Left 2 !.tran 3m startup
TEXT 288 -184 Bottom 2 ;LT3905 - Boost DC/DC Converter with APD Current Monitor\nAdjustable APD Bias Supply\nInput: 2.7V to 12V       Output: 54V @ 1mA
TEXT -152 568 Left 2 ;Note:\n  If the simulation model is not found please update with the "Sync Release" command from the "Tools" menu.\n  It remains the customer's responsibility to verify proper and reliable operation in the actual application.\n  Component substitution and printed circuit board layout may significantly affect circuit performance or reliability.\n  Contact your local sales representative for assistance. This circuit is distributed to customers only for use with LTC parts.\n  Copyright © 2014 Linear Technology Inc. All rights reserved.
