Version 4
SHEET 1 1544 748
WIRE 16 -64 -96 -64
WIRE 96 -64 16 -64
WIRE 416 -64 96 -64
WIRE -96 -48 -96 -64
WIRE 16 -48 16 -64
WIRE 96 0 96 -64
WIRE 112 0 96 0
WIRE 416 0 416 -64
WIRE 416 0 400 0
WIRE -96 48 -96 32
WIRE 16 48 16 16
WIRE 112 96 96 96
WIRE 656 96 400 96
WIRE 32 192 0 192
WIRE 112 192 96 192
WIRE 432 192 400 192
WIRE 432 208 432 192
WIRE 16 288 0 288
WIRE 112 288 96 288
WIRE 432 288 432 272
WIRE 432 288 400 288
WIRE 544 288 432 288
WIRE 656 288 656 96
WIRE 656 288 624 288
WIRE 768 288 656 288
WIRE 864 288 768 288
WIRE 976 288 864 288
WIRE 656 304 656 288
WIRE 768 304 768 288
WIRE 864 304 864 288
WIRE 976 304 976 288
WIRE 432 336 432 288
WIRE 448 336 432 336
WIRE 528 336 512 336
WIRE 112 384 96 384
WIRE 656 384 400 384
WIRE 768 384 768 368
WIRE 768 384 656 384
WIRE 656 400 656 384
WIRE 864 400 864 368
WIRE 976 400 976 384
WIRE 656 496 656 480
FLAG 96 384 0
FLAG 0 288 0
FLAG 0 192 0
FLAG -96 48 0
FLAG 864 400 0
FLAG 656 496 0
FLAG 976 400 0
FLAG 976 288 OUT
FLAG -96 -64 IN
FLAG 528 336 0
FLAG 16 48 0
SYMBOL res 112 272 R90
WINDOW 0 0 56 VBottom 2
WINDOW 3 32 56 VTop 2
SYMATTR InstName R1
SYMATTR Value 182K
SYMBOL cap 96 176 R90
WINDOW 0 0 32 VBottom 2
WINDOW 3 32 32 VTop 2
SYMATTR InstName C1
SYMATTR Value .005µ
SYMBOL voltage -96 -64 R0
WINDOW 123 0 0 Left 2
WINDOW 39 0 0 Left 2
SYMATTR InstName V1
SYMATTR Value 12
SYMBOL ind 528 304 R270
WINDOW 0 32 56 VTop 2
WINDOW 3 5 56 VBottom 2
SYMATTR InstName L1
SYMATTR Value 8.2µ
SYMATTR SpiceLine Rser=24m
SYMBOL cap 416 208 R0
SYMATTR InstName C3
SYMATTR Value .47µ
SYMBOL cap 848 304 R0
WINDOW 3 38 32 Left 2
WINDOW 123 25 56 Left 2
SYMATTR InstName C4
SYMATTR Value 47µ
SYMATTR SpiceLine V=10 Irms=0 Rser=0.002 Lser=0
SYMATTR Value2 x2
SYMBOL res 640 288 R0
SYMATTR InstName R2
SYMATTR Value 1Meg
SYMBOL res 640 384 R0
SYMATTR InstName R3
SYMATTR Value 576K
SYMBOL cap 752 304 R0
SYMATTR InstName C5
SYMATTR Value 10p
SYMBOL res 960 288 R0
SYMATTR InstName Rload
SYMATTR Value 1.1
SYMBOL schottky 512 352 M270
WINDOW 0 32 32 VTop 2
WINDOW 3 0 32 VBottom 2
SYMATTR InstName D1
SYMATTR Value B560C
SYMATTR Description Diode
SYMATTR Type diode
SYMBOL cap 0 -48 R0
SYMATTR InstName C2
SYMATTR Value 10µ
SYMBOL PowerProducts\\LT3995 256 192 R0
SYMATTR InstName U1
TEXT 832 464 Left 2 !.tran 3m startup
TEXT 416 -72 Bottom 2 ;LT3995 - 60V 3A 2MHz Step-Down Switching Regulator with 2.7µA Quiescent Current\n3.3V Step-Down Converter\nInput: 4.3V to 60V       Output: 3.3V @ 3A
TEXT -144 504 Left 2 ;Note:\n  A smaller value SS capacitor is used to reduce simulation time. Typical value should be 10nF.\n  If the simulation model is not found please update with the "Sync Release" command from the "Tools" menu.\n  It remains the customer's responsibility to verify proper and reliable operation in the actual application.\n  Component substitution and printed circuit board layout may significantly affect circuit performance or reliability.\n  Contact your local sales representative for assistance. This circuit is distributed to customers only for use with LTC parts.\n  Copyright © 2013 Linear Technology Inc. All rights reserved.
