Version 4
SHEET 1 2020 764
WIRE -224 -32 -336 -32
WIRE -144 -32 -224 -32
WIRE -64 -32 -144 -32
WIRE 16 -32 -64 -32
WIRE 160 -32 144 -32
WIRE 240 -32 224 -32
WIRE -336 -16 -336 -32
WIRE -224 -16 -224 -32
WIRE 16 16 16 -32
WIRE 144 16 144 -32
WIRE -336 80 -336 64
WIRE -224 80 -224 48
WIRE -144 80 -144 -32
WIRE -64 80 -64 -32
WIRE -48 80 -64 80
WIRE 240 80 240 -32
WIRE 240 80 208 80
WIRE 256 80 240 80
WIRE 352 80 336 80
WIRE 384 80 352 80
WIRE 496 80 384 80
WIRE 576 80 496 80
WIRE 496 96 496 80
WIRE 576 96 576 80
WIRE -144 176 -144 160
WIRE -48 176 -144 176
WIRE 256 176 208 176
WIRE 352 176 352 80
WIRE 352 176 256 176
WIRE 384 176 384 80
WIRE 256 192 256 176
WIRE 496 192 496 160
WIRE 576 192 576 176
WIRE -144 272 -160 272
WIRE -48 272 -64 272
WIRE 256 272 256 256
WIRE 256 272 208 272
WIRE 384 272 384 256
WIRE 384 272 256 272
WIRE 384 288 384 272
WIRE 80 352 80 336
WIRE 384 384 384 368
FLAG 80 352 0
FLAG -160 272 0
FLAG 384 384 0
FLAG 496 192 0
FLAG 576 192 0
FLAG -336 80 0
FLAG -336 -32 IN
FLAG 576 80 OUT
FLAG -224 80 0
SYMBOL ind 240 96 R270
WINDOW 0 32 56 VTop 0
WINDOW 3 5 56 VBottom 0
SYMATTR InstName L1
SYMATTR Value 33µ
SYMBOL res 368 160 R0
SYMATTR InstName R1
SYMATTR Value 1Meg
SYMBOL res 368 272 R0
SYMATTR InstName R2
SYMATTR Value 316K
SYMBOL res -48 256 R90
WINDOW 0 0 56 VBottom 0
WINDOW 3 32 56 VTop 0
SYMATTR InstName R3
SYMATTR Value 374K
SYMBOL cap 160 -16 R270
WINDOW 0 32 32 VTop 0
WINDOW 3 0 32 VBottom 0
SYMATTR InstName C1
SYMATTR Value .22µ
SYMBOL cap 480 96 R0
SYMATTR InstName C2
SYMATTR Value 22µ
SYMBOL res -160 64 R0
SYMATTR InstName R4
SYMATTR Value 100K
SYMBOL cap 240 192 R0
WINDOW 0 29 14 Left 0
WINDOW 3 31 50 Left 0
SYMATTR InstName C3
SYMATTR Value 22p
SYMBOL voltage -336 -32 R0
WINDOW 123 0 0 Left 0
WINDOW 39 0 0 Left 0
SYMATTR InstName V1
SYMATTR Value 12
SYMBOL cap -240 -16 R0
SYMATTR InstName C4
SYMATTR Value 2.2µ
SYMBOL PowerProducts\\LT3990 80 176 R0
SYMATTR InstName U1
SYMBOL res 560 80 R0
SYMATTR InstName Rload
SYMATTR Value 14.3
TEXT -504 400 Left 0 ;Note:\n  If the simulation model is not found please update with the "Sync Release" command from the "Tools" menu.\n  It remains the customer's responsibility to verify proper and reliable operation in the actual application.\n  Component substitution and printed circuit board layout may significantly affect circuit performance or reliability.\n  Contact your local sales representative for assistance. This circuit is distributed to customers only for use with LTC parts.\n  Copyright © 2011 Linear Technology Inc. All rights reserved.
TEXT 72 -88 Bottom 0 ;LT3990 - 62V, 350mA Step-Down Regulator with 2.5µA Quiescent Current and Integrated Diodes\nInput: 12V       Output: 5V @ 0.35A
TEXT 512 304 Left 0 !.tran 1m startup
