Version 4
SHEET 1 1384 716
WIRE 48 -16 -64 -16
WIRE 400 -16 48 -16
WIRE -64 0 -64 -16
WIRE 48 48 48 -16
WIRE 80 48 48 48
WIRE 400 48 400 -16
WIRE 400 48 368 48
WIRE -64 96 -64 80
WIRE 80 144 64 144
WIRE 592 144 368 144
WIRE -16 240 -32 240
WIRE 80 240 64 240
WIRE 400 240 368 240
WIRE 400 256 400 240
WIRE -16 336 -32 336
WIRE 80 336 64 336
WIRE 400 336 400 320
WIRE 400 336 368 336
WIRE 480 336 400 336
WIRE 592 336 592 144
WIRE 592 336 560 336
WIRE 688 336 592 336
WIRE 784 336 688 336
WIRE 880 336 784 336
WIRE 400 352 400 336
WIRE 592 352 592 336
WIRE 688 352 688 336
WIRE 880 352 880 336
WIRE 784 368 784 336
WIRE 80 432 64 432
WIRE 592 432 368 432
WIRE 688 432 688 416
WIRE 688 432 592 432
WIRE 400 448 400 416
WIRE 592 448 592 432
WIRE 784 448 784 432
WIRE 880 448 880 432
WIRE 592 544 592 528
FLAG 64 432 0
FLAG -32 336 0
FLAG 880 448 0
FLAG 784 448 0
FLAG 592 544 0
FLAG -64 96 0
FLAG 400 448 0
FLAG -64 -16 IN
FLAG 880 336 OUT
FLAG 400 112 0
FLAG -96 240 0
SYMBOL res 80 320 R90
WINDOW 0 0 56 VBottom 2
WINDOW 3 32 56 VTop 2
SYMATTR InstName R1
SYMATTR Value 118K
SYMBOL res 576 432 R0
SYMATTR InstName R2
SYMATTR Value 562K
SYMBOL ind 464 352 R270
WINDOW 0 32 56 VTop 2
WINDOW 3 5 56 VBottom 2
SYMATTR InstName L1
SYMATTR Value 10µ
SYMBOL res 576 336 R0
SYMATTR InstName R3
SYMATTR Value 1Meg
SYMBOL cap 768 368 R0
SYMATTR InstName C1
SYMATTR Value 47µ
SYMBOL res 864 336 R0
SYMATTR InstName Rload
SYMATTR Value 2.75
SYMBOL voltage -64 -16 R0
SYMATTR InstName V1
SYMATTR Value 12
SYMBOL cap 384 256 R0
WINDOW 3 24 54 Left 2
SYMATTR Value .47µ
SYMATTR InstName C2
SYMBOL cap -32 224 R90
WINDOW 0 0 32 VBottom 2
WINDOW 3 32 32 VTop 2
SYMATTR InstName C3
SYMATTR Value .001µ
SYMBOL cap 384 48 R0
WINDOW 0 35 12 Left 2
WINDOW 3 33 51 Left 2
SYMATTR InstName C4
SYMATTR Value 4.7µ
SYMBOL cap 672 352 R0
SYMATTR InstName C5
SYMATTR Value 10p
SYMBOL schottky 384 416 M180
WINDOW 0 35 56 Left 2
WINDOW 3 30 4 Left 2
SYMATTR InstName D1
SYMATTR Value DFLS220L
SYMBOL res 80 224 R90
WINDOW 0 0 56 VBottom 2
WINDOW 3 32 56 VTop 2
SYMATTR InstName R4
SYMATTR Value 100K
SYMBOL PowerProducts\\LT3991 224 240 R0
SYMATTR InstName U2
TEXT 760 544 Left 2 !.tran 1.2m startup
TEXT -216 560 Left 2 ;Note:\n  If the simulation model is not found please update with the "Sync Release" command from the "Tools" menu.\n  It remains the customer's responsibility to verify proper and reliable operation in the actual application.\n  Component substitution and printed circuit board layout may significantly affect circuit performance or reliability.\n  Contact your local sales representative for assistance. This circuit is distributed to customers only for use with LTC parts.\n  Copyright © 2010 Linear Technology Inc. All rights reserved.
TEXT 336 -32 Bottom 2 ;LT3991, 55V 1.2A 2MHz Step-Down Regulator with 2.8µA Quiescent Current\nInput: 12V       Output: 3.3V @ 1.2A
