Version 4
SHEET 1 1480 724
WIRE 400 -32 -16 -32
WIRE -16 48 -16 -32
WIRE -16 48 -128 48
WIRE 80 48 -16 48
WIRE 400 48 400 -32
WIRE 400 48 368 48
WIRE -128 64 -128 48
WIRE -16 64 -16 48
WIRE 80 144 64 144
WIRE 592 144 368 144
WIRE -128 160 -128 144
WIRE -16 160 -16 128
WIRE -16 240 -32 240
WIRE 80 240 64 240
WIRE 400 240 368 240
WIRE 400 256 400 240
WIRE -16 336 -32 336
WIRE 80 336 64 336
WIRE 400 336 400 320
WIRE 400 336 368 336
WIRE 480 336 400 336
WIRE 592 336 592 144
WIRE 592 336 560 336
WIRE 688 336 592 336
WIRE 784 336 688 336
WIRE 880 336 784 336
WIRE 400 352 400 336
WIRE 592 352 592 336
WIRE 688 352 688 336
WIRE 880 352 880 336
WIRE 784 368 784 336
WIRE 80 432 64 432
WIRE 592 432 368 432
WIRE 688 432 688 416
WIRE 688 432 592 432
WIRE 400 448 400 416
WIRE 592 448 592 432
WIRE 784 448 784 432
WIRE 880 448 880 432
WIRE 592 544 592 528
FLAG 64 432 0
FLAG -32 336 0
FLAG 880 448 0
FLAG 784 448 0
FLAG 592 544 0
FLAG -128 160 0
FLAG 400 448 0
FLAG -128 48 IN
FLAG 880 336 OUT
FLAG -16 160 0
FLAG -96 240 0
SYMBOL res 80 320 R90
WINDOW 0 0 56 VBottom 2
WINDOW 3 32 56 VTop 2
SYMATTR InstName R1
SYMATTR Value 49.9K
SYMBOL res 576 432 R0
SYMATTR InstName R2
SYMATTR Value 562K
SYMBOL ind 464 352 R270
WINDOW 0 32 56 VTop 2
WINDOW 3 5 56 VBottom 2
SYMATTR InstName L1
SYMATTR Value 4.7µ
SYMATTR SpiceLine Rser=0.06
SYMBOL res 576 336 R0
SYMATTR InstName R3
SYMATTR Value 1Meg
SYMBOL cap 768 368 R0
SYMATTR InstName C1
SYMATTR Value 22µ
SYMATTR SpiceLine Rser=1m
SYMBOL res 864 336 R0
SYMATTR InstName Rout
SYMATTR Value 2.54
SYMBOL voltage -128 48 R0
WINDOW 123 0 0 Left 2
WINDOW 39 0 0 Left 2
SYMATTR InstName V1
SYMATTR Value 12
SYMBOL cap 384 256 R0
WINDOW 3 24 54 Left 2
SYMATTR Value .47µ
SYMATTR InstName C2
SYMBOL cap -32 224 R90
WINDOW 0 0 32 VBottom 2
WINDOW 3 32 32 VTop 2
SYMATTR InstName C3
SYMATTR Value .001µ
SYMBOL cap -32 64 R0
WINDOW 0 46 18 Left 2
WINDOW 3 38 55 Left 2
SYMATTR InstName C4
SYMATTR Value 4.7µ
SYMBOL cap 672 352 R0
SYMATTR InstName C5
SYMATTR Value 10p
SYMBOL schottky 384 416 M180
WINDOW 0 24 64 Left 2
WINDOW 3 24 0 Left 2
SYMATTR InstName D1
SYMATTR Value SS24
SYMBOL res 80 224 R90
WINDOW 0 0 56 VBottom 2
WINDOW 3 32 56 VTop 2
SYMATTR InstName R4
SYMATTR Value 100K
SYMBOL PowerProducts\\LT3971A 224 240 R0
SYMATTR InstName U1
TEXT 704 536 Left 2 !.tran 1.2m startup
TEXT -296 568 Left 2 ;Note:\n  If the simulation model is not found please update with the "Sync Release" command from the "Tools" menu.\n  It remains the customer's responsibility to verify proper and reliable operation in the actual application.\n  Component substitution and printed circuit board layout may significantly affect circuit performance or reliability.\n  Contact your local sales representative for assistance. This circuit is distributed to customers only for use with LTC parts.\n  Copyright © 2013 Linear Technology Inc. All rights reserved.
TEXT 240 -48 Bottom 2 ;LT3971A - 38V, 1.3A 2MHz Step-Down Regulator with 2.2µA Quiescent Current\n3.3V Step-Down Converter\nInput: 4.5V to 38V     Output: 3.3V @ 1.3A, Fsw = 800kHz
