Version 4
SHEET 1 1296 1268
WIRE -336 -128 -448 -128
WIRE -240 -128 -336 -128
WIRE -160 -128 -240 -128
WIRE 240 -128 -160 -128
WIRE 464 -128 240 -128
WIRE 576 -128 544 -128
WIRE 624 -128 576 -128
WIRE 720 -128 688 -128
WIRE 816 -128 720 -128
WIRE 944 -128 816 -128
WIRE -160 -112 -160 -128
WIRE 816 -112 816 -128
WIRE -448 -96 -448 -128
WIRE -336 -96 -336 -128
WIRE 432 -80 -48 -80
WIRE 240 -64 240 -128
WIRE 816 -32 816 -48
WIRE -336 -16 -336 -32
WIRE -160 -16 -160 -32
WIRE 64 -16 -160 -16
WIRE 432 -16 432 -80
WIRE 432 -16 416 -16
WIRE 512 -16 496 -16
WIRE -448 0 -448 -16
WIRE -160 0 -160 -16
WIRE 720 48 720 -128
WIRE -48 64 -48 -80
WIRE -32 64 -48 64
WIRE 64 64 48 64
WIRE 576 64 576 -128
WIRE 576 64 416 64
WIRE -160 96 -160 80
WIRE 944 96 944 -128
WIRE 944 96 864 96
WIRE 944 112 944 96
WIRE -240 128 -240 -128
WIRE 64 144 48 144
WIRE 720 144 720 128
WIRE 720 144 416 144
WIRE 720 160 720 144
WIRE -240 224 -240 208
WIRE 64 224 -240 224
WIRE 464 224 416 224
WIRE 944 224 944 192
WIRE 944 224 896 224
WIRE -240 240 -240 224
WIRE 720 256 720 240
WIRE 944 272 944 224
WIRE 464 288 464 224
WIRE 864 288 864 96
WIRE 864 288 464 288
WIRE -16 304 -32 304
WIRE 64 304 48 304
WIRE 448 304 416 304
WIRE 448 320 448 304
WIRE 896 320 896 224
WIRE 896 320 448 320
WIRE -240 336 -240 320
WIRE -96 384 -160 384
WIRE 64 384 -16 384
WIRE 448 384 416 384
WIRE 528 384 512 384
WIRE 944 384 944 336
WIRE -240 464 -256 464
WIRE 64 464 -160 464
WIRE 896 464 416 464
WIRE 944 496 944 480
WIRE 240 528 240 512
FLAG 512 -16 0
FLAG 720 256 0
FLAG 816 -32 0
FLAG -448 0 0
FLAG -160 96 0
FLAG 528 384 0
FLAG 944 496 0
FLAG -32 304 0
FLAG -160 384 0
FLAG 240 528 0
FLAG -256 464 0
FLAG -448 -128 IN
FLAG -240 336 0
FLAG -336 -16 0
SYMBOL cap 432 0 R270
WINDOW 0 32 32 VTop 0
WINDOW 3 0 32 VBottom 0
SYMATTR InstName C1
SYMATTR Value 4.7µ
SYMBOL ind 448 -112 R270
WINDOW 0 32 56 VTop 0
WINDOW 3 5 56 VBottom 0
SYMATTR InstName L1
SYMATTR Value 22µ
SYMATTR SpiceLine Rpar=2K
SYMBOL res 704 32 R0
SYMATTR InstName R1
SYMATTR Value 1Meg
SYMBOL res 704 144 R0
SYMATTR InstName R2
SYMATTR Value 16.2K
SYMBOL schottky 624 -112 R270
WINDOW 0 32 32 VTop 0
WINDOW 3 0 32 VBottom 0
SYMATTR InstName D1
SYMATTR Value MBRS360
SYMATTR Description Diode
SYMATTR Type diode
SYMBOL res 928 96 R0
SYMATTR InstName R3
SYMATTR Value .68
SYMBOL cap 800 -112 R0
WINDOW 40 45 98 Left 0
SYMATTR SpiceLine2 x5
SYMATTR InstName C2
SYMATTR Value 2.2µ
SYMATTR SpiceLine Rser=4m
SYMBOL voltage -448 -112 R0
WINDOW 123 0 0 Left 0
WINDOW 39 0 0 Left 0
SYMATTR InstName V1
SYMATTR Value 14
SYMBOL res -176 -128 R0
SYMATTR InstName R4
SYMATTR Value 332K
SYMBOL res -176 -16 R0
SYMATTR InstName R5
SYMATTR Value 100K
SYMBOL cap 448 368 M90
WINDOW 0 0 32 VBottom 0
WINDOW 3 29 32 VTop 0
WINDOW 39 50 32 VTop 0
SYMATTR InstName C3
SYMATTR Value 4700p
SYMATTR SpiceLine Rser=34K
SYMBOL nmos 896 384 R0
SYMATTR InstName Q1
SYMATTR Value Si7850DP
SYMBOL LED 928 272 R0
WINDOW 3 29 67 Left 0
WINDOW 123 23 95 Left 0
SYMATTR Value LXK2-PW14
SYMATTR Value2 N=18
SYMATTR InstName D2
SYMATTR Description Diode
SYMATTR Type diode
SYMBOL cap 48 288 R90
WINDOW 0 0 32 VBottom 0
WINDOW 3 32 32 VTop 0
SYMATTR InstName C4
SYMATTR Value .047µ
SYMBOL res 0 368 R90
WINDOW 0 0 56 VBottom 0
WINDOW 3 32 56 VTop 0
SYMATTR InstName R6
SYMATTR Value 28.7K
SYMBOL voltage -144 464 R90
WINDOW 0 -32 56 VBottom 0
WINDOW 3 32 56 VTop 0
WINDOW 123 0 0 Left 0
WINDOW 39 0 0 Left 0
SYMATTR InstName V2
SYMATTR Value PULSE(3.3 0 6m 1u 1u 125u 250u)
SYMBOL res -48 80 R270
WINDOW 0 32 56 VTop 0
WINDOW 3 0 56 VBottom 0
SYMATTR InstName R7
SYMATTR Value 100K
SYMBOL res -256 112 R0
SYMATTR InstName R8
SYMATTR Value 332K
SYMBOL res -256 224 R0
SYMATTR InstName R9
SYMATTR Value 40.2K
SYMBOL PowerProducts\\LT3956 240 224 R0
SYMATTR InstName U1
SYMBOL cap -352 -96 R0
WINDOW 39 39 94 Left 0
SYMATTR SpiceLine x2
SYMATTR InstName C5
SYMATTR Value 2.2µ
TEXT 616 496 Left 0 !.tran 8m startup
TEXT -360 568 Left 0 ;Note:\n  If the simulation model is not found please update with the "Sync Release" command from the "Tools" menu.\n  It remains the customer's responsibility to verify proper and reliable operation in the actual application.\n  Component substitution and printed circuit board layout may significantly affect circuit performance or reliability.\n  Contact your local sales representative for assistance. This circuit is distributed to customers only for use with LTC parts.\n  Copyright © 2011 Linear Technology Inc. All rights reserved.
TEXT 240 -184 Bottom 0 ;LT3956 - 80VIN, 80VOUT Constant-Current, Constant-Voltage Converter\n94% Efficient 25W White LED Automotive Headlamp Driver (Vin 6V to 60V, 80V Transient)
