Version 4
SHEET 1 1376 680
WIRE 528 -144 48 -144
WIRE 304 -96 272 -96
WIRE 416 -96 368 -96
WIRE 272 -48 272 -96
WIRE -96 16 -192 16
WIRE 128 16 -96 16
WIRE 144 16 128 16
WIRE 416 16 416 -96
WIRE 416 16 400 16
WIRE 432 16 416 16
WIRE 528 16 528 -144
WIRE 528 16 512 16
WIRE 560 16 528 16
WIRE 640 16 560 16
WIRE 736 16 640 16
WIRE -192 32 -192 16
WIRE -96 32 -96 16
WIRE 640 32 640 16
WIRE 736 32 736 16
WIRE 48 112 48 -144
WIRE 128 112 128 16
WIRE 144 112 128 112
WIRE 448 112 400 112
WIRE 528 112 528 16
WIRE 528 112 448 112
WIRE -192 128 -192 112
WIRE -96 128 -96 96
WIRE 640 128 640 96
WIRE 736 128 736 112
WIRE 560 192 560 16
WIRE 560 192 480 192
WIRE 48 208 48 192
WIRE 144 208 48 208
WIRE 448 208 448 112
WIRE 448 208 400 208
WIRE 480 208 480 192
WIRE 560 208 560 192
WIRE 48 304 32 304
WIRE 144 304 128 304
WIRE 480 304 480 272
WIRE 480 304 400 304
WIRE 560 304 560 288
WIRE 560 304 480 304
WIRE 560 320 560 304
WIRE 272 384 272 368
WIRE 560 416 560 400
FLAG 272 384 0
FLAG 32 304 0
FLAG 560 416 0
FLAG 640 128 0
FLAG 736 128 0
FLAG -192 128 0
FLAG -192 16 IN
FLAG 736 16 OUT
FLAG -96 128 0
SYMBOL ind 416 32 R270
WINDOW 0 32 56 VTop 2
WINDOW 3 5 56 VBottom 2
SYMATTR InstName L1
SYMATTR Value 15µ
SYMATTR SpiceLine Rser=0.285
SYMBOL res 544 192 R0
SYMATTR InstName R1
SYMATTR Value 1Meg
SYMBOL res 544 304 R0
SYMATTR InstName R2
SYMATTR Value 316K
SYMBOL res 144 288 R90
WINDOW 0 0 56 VBottom 2
WINDOW 3 32 56 VTop 2
SYMATTR InstName R3
SYMATTR Value 215K
SYMBOL cap 624 32 R0
SYMATTR InstName C1
SYMATTR Value 22µ
SYMBOL res 32 96 R0
SYMATTR InstName R4
SYMATTR Value 200K
SYMBOL voltage -192 16 R0
WINDOW 123 24 138 Left 2
WINDOW 39 24 117 Left 2
SYMATTR InstName V1
SYMATTR Value 12
SYMBOL cap 464 208 R0
SYMATTR InstName C2
SYMATTR Value 10p
SYMBOL PowerProducts\\LT3973 272 160 R0
SYMATTR InstName U1
SYMBOL cap 368 -112 R90
WINDOW 0 0 32 VBottom 2
WINDOW 3 32 32 VTop 2
SYMATTR InstName C3
SYMATTR Value .22µ
SYMBOL res 720 16 R0
SYMATTR InstName Rload
SYMATTR Value 6.67
SYMBOL cap -112 32 R0
SYMATTR InstName C4
SYMATTR Value 2.2µ
TEXT 688 400 Left 2 !.tran 750u startup
TEXT -392 440 Left 2 ;Note:\n  If the simulation model is not found please update with the "Sync Release" command from the "Tools" menu.\n  It remains the customer's responsibility to verify proper and reliable operation in the actual application.\n  Component substitution and printed circuit board layout may significantly affect circuit performance or reliability.\n  Contact your local sales representative for assistance. This circuit is distributed to customers only for use with LTC parts.\n  Copyright © 2012 Linear Technology Inc. All rights reserved.
TEXT 296 -152 Bottom 2 ;LT3973 - 42V, 750mA Step-Down Regulator with 2.5µA Quiescent Current and Integrated Diodes\nµPower High Voltage Buck Regulator with Integrated Diodes\nInput: 5.6V to 42V       Output: 5V @ 750mA, Fsw = 600kHz
TEXT 88 352 Top 2 ;(600kHz)
