Version 4
SHEET 1 1832 1044
WIRE -96 -96 -192 -96
WIRE -16 -96 -96 -96
WIRE 64 -96 -16 -96
WIRE 208 -96 144 -96
WIRE 240 -96 208 -96
WIRE 336 -96 304 -96
WIRE -192 -80 -192 -96
WIRE -96 -80 -96 -96
WIRE 208 -48 208 -96
WIRE 336 -48 336 -96
WIRE -16 -16 -16 -96
WIRE 64 -16 -16 -16
WIRE 560 -16 480 -16
WIRE 784 -16 560 -16
WIRE 848 -16 784 -16
WIRE 784 0 784 -16
WIRE -192 16 -192 0
WIRE -96 16 -96 -16
WIRE 64 64 -16 64
WIRE 560 64 480 64
WIRE 640 64 560 64
WIRE 736 64 720 64
WIRE 784 80 784 64
WIRE -112 144 -128 144
WIRE -16 144 -32 144
WIRE 64 144 -16 144
WIRE 848 144 848 -16
WIRE 848 144 480 144
WIRE 64 224 -144 224
WIRE 848 224 480 224
WIRE 928 224 848 224
WIRE 1008 224 992 224
WIRE 848 288 848 224
WIRE -96 304 -112 304
WIRE -16 304 -32 304
WIRE 64 304 -16 304
WIRE 800 304 480 304
WIRE 64 384 -16 384
WIRE 496 384 480 384
WIRE 848 416 848 384
WIRE -144 464 -144 224
WIRE 64 464 -144 464
WIRE 512 464 480 464
WIRE 592 464 576 464
WIRE 848 496 848 480
WIRE -224 544 -240 544
WIRE -144 544 -144 464
WIRE -144 544 -160 544
WIRE -16 544 -144 544
WIRE 496 544 480 544
WIRE 592 544 576 544
WIRE -80 624 -96 624
WIRE 64 624 0 624
WIRE 496 624 480 624
WIRE 208 672 208 656
WIRE 336 672 336 656
WIRE 208 768 208 752
WIRE 336 768 336 752
WIRE 336 848 336 832
FLAG 208 768 0
FLAG 592 464 0
FLAG 496 624 0
FLAG 784 80 0
FLAG -112 304 0
FLAG -240 544 0
FLAG 736 64 0
FLAG -192 16 0
FLAG 848 496 0
FLAG -128 144 0
FLAG -192 -96 IN
FLAG 336 848 0
FLAG -96 16 0
FLAG 848 -16 OUT
FLAG 592 544 0
FLAG -96 624 0
FLAG 1008 224 0
SYMBOL ind 48 -80 R270
WINDOW 0 32 56 VTop 2
WINDOW 3 5 56 VBottom 2
SYMATTR InstName L1
SYMATTR Value 4.7µ
SYMBOL cap 304 -112 R90
WINDOW 0 0 32 VBottom 2
WINDOW 3 32 32 VTop 2
SYMATTR InstName C4
SYMATTR Value .1µ
SYMBOL cap 768 0 R0
SYMATTR InstName C2
SYMATTR Value 4.7µ
SYMATTR SpiceLine Rser=.01
SYMBOL cap 512 480 R270
WINDOW 0 32 32 VTop 2
WINDOW 3 0 32 VBottom 2
SYMATTR InstName C7
SYMATTR Value .01µ
SYMBOL cap -160 528 R90
WINDOW 0 0 32 VBottom 2
WINDOW 3 32 32 VTop 2
SYMATTR InstName C6
SYMATTR Value 2.2µ
SYMBOL res -32 560 R270
WINDOW 0 32 56 VTop 2
WINDOW 3 0 56 VBottom 2
SYMATTR InstName R9
SYMATTR Value 100K
SYMBOL res 192 656 R0
SYMATTR InstName R1
SYMATTR Value 45.3K
SYMBOL res 832 128 R0
SYMATTR InstName R2
SYMATTR Value 300m
SYMBOL res 544 -32 R0
SYMATTR InstName R3
SYMATTR Value 1Meg
SYMBOL res 624 80 R270
WINDOW 0 32 56 VTop 2
WINDOW 3 0 56 VBottom 2
SYMATTR InstName R4
SYMATTR Value 33.2K
SYMBOL cap -32 288 R90
WINDOW 0 0 32 VBottom 2
WINDOW 3 32 32 VTop 2
SYMATTR InstName C5
SYMATTR Value 1µ
SYMBOL voltage -192 -96 R0
WINDOW 123 24 138 Left 2
WINDOW 39 24 117 Left 2
SYMATTR Value 14
SYMATTR InstName V1
SYMBOL LED 832 416 R0
WINDOW 123 32 66 Left 2
WINDOW 3 81 39 Left 2
SYMATTR Value2 n=10
SYMATTR Value LXHL-BW02
SYMATTR InstName LED1
SYMATTR Description Diode
SYMATTR Type diode
SYMBOL pmos 800 384 M180
WINDOW 0 61 61 Left 2
WINDOW 3 60 30 Left 2
SYMATTR InstName M1
SYMATTR Value IRF7343P
SYMBOL res -32 -32 R0
SYMATTR InstName R6
SYMATTR Value 499K
SYMBOL res -32 48 R0
SYMATTR InstName R7
SYMATTR Value 221k
SYMBOL res -16 128 R90
WINDOW 0 0 56 VBottom 2
WINDOW 3 32 56 VTop 2
SYMATTR InstName R8
SYMATTR Value 31.6k
SYMBOL PowerProducts\\LT3922 272 304 R0
SYMATTR InstName U1
SYMBOL res 320 656 R0
SYMATTR InstName R5
SYMATTR Value 24K
SYMBOL cap 320 768 R0
SYMATTR InstName C3
SYMATTR Value 220p
SYMBOL cap -112 -80 R0
SYMATTR InstName C1
SYMATTR Value 4.7µ
SYMBOL res -32 288 R0
SYMATTR Value 100K
SYMATTR InstName R10
SYMBOL res 480 560 R270
WINDOW 0 27 58 VTop 2
WINDOW 3 0 56 VBottom 2
SYMATTR InstName R11
SYMATTR Value 332k
SYMBOL voltage 16 624 R90
WINDOW 123 74 56 VTop 2
WINDOW 39 53 56 VTop 2
WINDOW 0 -32 56 VBottom 2
WINDOW 3 32 56 VTop 2
SYMATTR InstName V2
SYMATTR Value 1.1
SYMBOL diode 992 208 R90
WINDOW 0 0 32 VBottom 2
WINDOW 3 32 32 VTop 2
SYMATTR InstName D1
SYMATTR Value 1N4148
TEXT 712 608 Left 2 !.tran 1m startup
TEXT -288 856 Left 2 ;Note:\n  If the simulation model is not found please update with the "Sync Release" command from the "Tools" menu.\n  It remains the customer's responsibility to verify proper and reliable operation in the actual application.\n  Component substitution and printed circuit board layout may significantly affect circuit performance or reliability.\n  Contact your local sales representative for assistance. This circuit is distributed to customers only for use with LTC parts.\n  Copyright © 2017 Linear Technology Inc. All rights reserved.
TEXT 320 -168 Bottom 2 ;LT3922 - Synchronous, Low EMI LED Driver\nLow EMI, High Efficiency Boost LED Driver\nInput: 4V to 28V   Output: up to 34V LED @330mA
