Version 4
SHEET 1 1428 828
WIRE -256 -48 -336 -48
WIRE -224 -48 -256 -48
WIRE -64 -48 -224 -48
WIRE -32 -48 -64 -48
WIRE 80 -48 48 -48
WIRE 352 -48 208 -48
WIRE 560 -48 352 -48
WIRE -336 -32 -336 -48
WIRE 352 -32 352 -48
WIRE 560 -32 560 -48
WIRE 80 0 80 -48
WIRE 208 0 208 -48
WIRE 560 48 560 32
WIRE -336 64 -336 48
WIRE -224 64 -224 -48
WIRE -64 80 -64 -48
WIRE -16 80 -64 80
WIRE 352 80 352 48
WIRE 352 80 304 80
WIRE 416 80 352 80
WIRE 512 80 496 80
WIRE -224 160 -224 144
WIRE -16 160 -224 160
WIRE 576 160 304 160
WIRE 672 160 640 160
WIRE -224 176 -224 160
WIRE -16 240 -128 240
WIRE 448 240 304 240
WIRE 544 240 512 240
WIRE -128 256 -128 240
WIRE -224 272 -224 256
WIRE -16 320 -48 320
WIRE 320 320 304 320
WIRE 416 320 400 320
WIRE -128 352 -128 336
WIRE -48 416 -48 320
WIRE 48 416 48 400
WIRE 48 416 -48 416
WIRE 144 416 144 400
WIRE 240 416 240 400
WIRE 48 432 48 416
WIRE 48 512 48 496
WIRE 240 512 240 496
WIRE -256 544 -256 -48
WIRE 416 544 416 320
WIRE 416 544 -256 544
FLAG 144 416 0
FLAG 240 512 0
FLAG 48 512 0
FLAG 512 80 0
FLAG 560 -48 OUT
FLAG -224 272 0
FLAG -336 64 0
FLAG -336 -48 IN
FLAG -128 352 0
FLAG 544 240 0
FLAG 672 160 0
FLAG 560 48 0
SYMBOL res 224 400 R0
SYMATTR InstName R1
SYMATTR Value 24.9K
SYMBOL cap 32 432 R0
SYMATTR InstName C1
SYMATTR Value 1µ
SYMBOL res 336 -48 R0
SYMATTR InstName R2
SYMATTR Value 976K
SYMBOL res 512 64 R90
WINDOW 0 0 56 VBottom 2
WINDOW 3 32 56 VTop 2
SYMATTR InstName R3
SYMATTR Value 31.6K
SYMBOL cap 544 -32 R0
SYMATTR InstName C2
SYMATTR Value 2.2µ
SYMBOL res 416 304 R90
WINDOW 0 0 56 VBottom 2
WINDOW 3 32 56 VTop 2
SYMATTR InstName R4
SYMATTR Value 100K
SYMBOL voltage -336 -48 R0
SYMATTR InstName V1
SYMATTR Value 12
SYMBOL res -240 48 R0
SYMATTR InstName R5
SYMATTR Value 402K
SYMBOL res -240 160 R0
SYMATTR InstName R6
SYMATTR Value 130K
SYMBOL ind -48 -32 R270
WINDOW 0 32 56 VTop 2
WINDOW 3 5 56 VBottom 2
SYMATTR InstName L1
SYMATTR Value 6.8µ
SYMATTR SpiceLine Rser=160m
SYMBOL LED 448 256 R270
WINDOW 123 -21 32 VBottom 2
WINDOW 0 72 32 VTop 2
WINDOW 3 0 32 VBottom 2
SYMATTR Value2 N=12
SYMATTR InstName D1
SYMATTR Value LXHL-BW02
SYMATTR Description Diode
SYMATTR Type diode
SYMBOL LT3909 144 192 R0
SYMATTR InstName U1
SYMBOL voltage -128 240 R0
WINDOW 123 0 0 Left 2
WINDOW 39 0 0 Left 2
SYMATTR InstName V2
SYMATTR Value 3.3
SYMBOL LED 576 176 R270
WINDOW 123 -21 32 VBottom 2
WINDOW 0 72 32 VTop 2
WINDOW 3 0 32 VBottom 2
SYMATTR Value2 N=12
SYMATTR InstName D2
SYMATTR Value LXHL-BW02
SYMATTR Description Diode
SYMATTR Type diode
TEXT 552 520 Left 2 !.tran 1m startup
TEXT 264 520 Left 2 ;40mA each
TEXT 160 -168 Center 2 ;LT3909 - 2-String x 60mA, 2MHz Step-Up LED Driver with +/- 2% Current Matching\n2-String x 40mA, 2MHz LED Driver for Ten White LEDs/String\nInput: 7V to 36V       Output: 2-String x 40mA, 35V LED String Voltage
TEXT -472 544 Left 2 ;Note:\n  If the simulation model is not found please update with the "Sync Release" command from the "Tools" menu.\n  It remains the customer's responsibility to verify proper and reliable operation in the actual application.\n  Component substitution and printed circuit board layout may significantly affect circuit performance or reliability.\n  Contact your local sales representative for assistance. This circuit is distributed to customers only for use with LTC parts.\n  Copyright © 2016 Linear Technology Inc. All rights reserved.
