Version 4
SHEET 1 2884 788
WIRE -32 -240 -192 -240
WIRE 224 -240 -32 -240
WIRE 496 -240 400 -240
WIRE 656 -240 496 -240
WIRE 832 -240 656 -240
WIRE 1088 -240 832 -240
WIRE 1136 -240 1088 -240
WIRE 1264 -240 1216 -240
WIRE 1376 -240 1264 -240
WIRE 1520 -240 1456 -240
WIRE 1632 -240 1520 -240
WIRE -192 -224 -192 -240
WIRE -32 -224 -32 -240
WIRE 656 -224 656 -240
WIRE 1520 -224 1520 -240
WIRE 1632 -224 1632 -240
WIRE 832 -208 832 -240
WIRE 1008 -192 992 -192
WIRE 1088 -192 1088 -240
WIRE 1088 -192 1072 -192
WIRE 224 -176 224 -240
WIRE 496 -176 496 -240
WIRE 656 -144 656 -160
WIRE 1088 -144 1088 -192
WIRE -192 -128 -192 -144
WIRE -32 -128 -32 -144
WIRE -32 -128 -48 -128
WIRE 64 -128 -32 -128
WIRE 400 -128 400 -240
WIRE 400 -128 384 -128
WIRE 1376 -128 1312 -128
WIRE 1520 -128 1520 -160
WIRE 1520 -128 1456 -128
WIRE 1632 -128 1632 -144
WIRE 1632 -128 1520 -128
WIRE 832 -112 832 -128
WIRE 928 -112 832 -112
WIRE 1264 -112 1264 -240
WIRE 1264 -112 1248 -112
WIRE 1312 -112 1312 -128
WIRE 64 -48 -64 -48
WIRE 416 -48 384 -48
WIRE 496 -48 496 -96
WIRE 496 -48 416 -48
WIRE 528 -48 496 -48
WIRE 608 -48 592 -48
WIRE 416 -32 416 -48
WIRE 832 -16 832 -32
WIRE 928 -16 832 -16
WIRE 1280 -16 1248 -16
WIRE 1376 -16 1360 -16
WIRE 64 32 48 32
WIRE 416 32 384 32
WIRE 832 80 832 64
WIRE 928 80 832 80
WIRE 1280 80 1248 80
WIRE 1376 80 1344 80
WIRE 416 112 384 112
WIRE 512 112 416 112
WIRE 416 128 416 112
WIRE 224 176 224 160
WIRE 832 176 832 160
WIRE 1264 176 1248 176
WIRE 416 224 416 208
WIRE 512 224 512 112
WIRE 848 272 832 272
WIRE 928 272 912 272
WIRE 1264 272 1248 272
WIRE -64 368 -64 -48
WIRE 560 368 -64 368
WIRE 672 368 560 368
WIRE 864 368 672 368
WIRE 928 368 864 368
WIRE 1264 368 1248 368
WIRE 560 384 560 368
WIRE 672 384 672 368
WIRE 864 384 864 368
WIRE 672 464 672 448
WIRE 768 464 672 464
WIRE 864 464 864 448
WIRE 864 464 848 464
WIRE 928 464 864 464
WIRE 1264 464 1248 464
WIRE 1280 464 1264 464
WIRE 560 480 560 464
WIRE 1088 512 1088 496
WIRE 512 560 512 304
WIRE 560 560 560 544
WIRE 560 560 512 560
WIRE 1264 560 1264 464
WIRE 1264 560 560 560
FLAG 1088 512 0
FLAG 1376 80 0
FLAG 1344 464 0
FLAG 832 176 0
FLAG 1312 -112 0
FLAG 992 -192 0
FLAG 832 272 0
FLAG 608 -48 0
FLAG 656 -144 0
FLAG 416 224 0
FLAG -192 -128 0
FLAG 224 176 0
FLAG -32 32 0
FLAG -112 -128 0
FLAG -192 -240 IN
FLAG 1264 176 0
FLAG 1264 272 0
FLAG 1264 368 0
FLAG 1376 -16 0
SYMBOL PowerProducts\\LT4180 1088 176 R0
SYMATTR InstName U1
SYMBOL res 1264 0 R270
WINDOW 0 32 56 VTop 2
WINDOW 3 0 56 VBottom 2
SYMATTR InstName R1
SYMATTR Value 30.1K
SYMBOL cap 1280 64 M90
WINDOW 0 0 32 VBottom 2
WINDOW 3 32 32 VTop 2
SYMATTR InstName C1
SYMATTR Value 0.002µ
SYMBOL cap 1344 480 M270
WINDOW 0 32 32 VTop 2
WINDOW 3 0 32 VBottom 2
SYMATTR InstName C2
SYMATTR Value 1µ
SYMBOL res 1120 -224 R270
WINDOW 0 32 56 VTop 2
WINDOW 3 0 56 VBottom 2
SYMATTR InstName R2
SYMATTR Value .02
SYMBOL res 816 -224 R0
WINDOW 3 37 73 Left 2
SYMATTR Value 21.5K
SYMATTR InstName R3
SYMBOL res 816 -128 R0
SYMATTR InstName R4
SYMATTR Value 1.87K
SYMBOL res 816 -32 R0
SYMATTR InstName R5
SYMATTR Value 2.15K
SYMBOL res 816 64 R0
SYMATTR InstName R6
SYMATTR Value 5.36K
SYMBOL cap 1072 -208 R90
WINDOW 3 32 32 VTop 2
WINDOW 0 0 32 VBottom 2
SYMATTR Value 1µ
SYMATTR InstName C3
SYMBOL cap 912 256 R90
WINDOW 0 0 32 VBottom 2
WINDOW 3 32 32 VTop 2
SYMATTR InstName C4
SYMATTR Value .01µ
SYMBOL ind 480 -80 M180
WINDOW 0 36 80 Left 2
WINDOW 3 36 40 Left 2
SYMATTR InstName L1
SYMATTR Value 6.8µ
SYMATTR SpiceLine Rser=.025 Rpar=2K
SYMBOL schottky 592 -32 M270
WINDOW 0 32 32 VTop 2
WINDOW 3 0 32 VBottom 2
SYMATTR InstName D1
SYMATTR Value MBRS340
SYMATTR Description Diode
SYMATTR Type diode
SYMBOL cap 640 -224 R0
WINDOW 3 37 32 Left 2
WINDOW 123 30 60 Left 2
SYMATTR Value 47µ
SYMATTR Value2 x2
SYMATTR InstName C5
SYMATTR SpiceLine Rser=.01
SYMBOL voltage -192 -240 R0
SYMATTR InstName V1
SYMATTR Value 12
SYMBOL res 496 320 M180
WINDOW 0 36 76 Left 2
WINDOW 3 36 40 Left 2
SYMATTR InstName R7
SYMATTR Value 31K
SYMBOL res 400 112 R0
SYMATTR InstName R8
SYMATTR Value 10K
SYMBOL cap 400 -32 R0
WINDOW 3 30 49 Left 2
SYMATTR Value .47µ
SYMATTR InstName C6
SYMBOL res 64 16 R90
WINDOW 0 0 56 VBottom 2
WINDOW 3 32 56 VTop 2
SYMATTR InstName R9
SYMATTR Value 68.1K
SYMBOL res -48 -240 R0
SYMATTR InstName R10
SYMATTR Value 500K
SYMBOL cap -48 -144 R90
WINDOW 0 0 32 VBottom 2
WINDOW 3 32 32 VTop 2
SYMATTR InstName C7
SYMATTR Value .01µ
SYMBOL PowerProducts\\LT3693 224 0 R0
SYMATTR InstName U2
SYMBOL cap 848 448 M180
WINDOW 0 24 56 Left 2
WINDOW 3 24 8 Left 2
SYMATTR InstName C8
SYMATTR Value 47p
SYMBOL cap 656 448 M180
WINDOW 0 24 56 Left 2
WINDOW 3 24 8 Left 2
SYMATTR InstName C9
SYMATTR Value 0.0022µ
SYMBOL res 864 448 R90
WINDOW 0 0 56 VBottom 2
WINDOW 3 32 56 VTop 2
SYMATTR InstName R11
SYMATTR Value 33K
SYMBOL res 544 480 M180
WINDOW 0 36 76 Left 2
WINDOW 3 36 40 Left 2
SYMATTR InstName R12
SYMATTR Value 1K
SYMBOL schottky 544 544 M180
WINDOW 0 24 64 Left 2
WINDOW 3 24 0 Left 2
SYMATTR InstName D2
SYMATTR Value CMDSH2-3
SYMATTR Description Diode
SYMATTR Type diode
SYMBOL cap 1504 -224 R0
WINDOW 3 22 69 Left 2
SYMATTR Value 1000µ
SYMATTR InstName C10
SYMATTR SpiceLine Rser=.05
SYMBOL res 1616 -240 R0
SYMATTR InstName Rload
SYMATTR Value 1.67
SYMBOL res 1472 -256 R90
WINDOW 0 0 56 VBottom 2
WINDOW 3 32 56 VTop 2
SYMATTR InstName Rcable1
SYMATTR Value .2
SYMBOL res 1472 -144 R90
WINDOW 0 0 56 VBottom 2
WINDOW 3 32 56 VTop 2
SYMATTR InstName Rcable2
SYMATTR Value .2
TEXT 1392 552 Left 2 !.tran 10ms startup
TEXT 1296 224 Left 2 ;To set Dither Frequency (in Simulation Only):\n  Once desired Dither frequency is known, \n  multiply it by 8 and set oscillator to run at\n  that frequency. \n  Ground all DIV pins.
TEXT 704 -256 Bottom 2 ;LT4180 - Virtual Remote Sense Controller\nLT3693 - 36V, 3.5A, 2.4MHz Step-Down Switching Regulator\nInput: 8V to 36V     Output: 5V @ 2A
TEXT 96 552 Left 2 ;Note:\n  If the simulation model is not found please update with the "Sync Release" command from the "Tools" menu.\n  It remains the customer's responsibility to verify proper and reliable operation in the actual application.\n  Component substitution and printed circuit board layout may significantly affect circuit performance or reliability.\n  Contact your local sales representative for assistance. This circuit is distributed to customers only for use with LTC parts.\n  Copyright © 2012 Linear Technology Inc. All rights reserved.
TEXT 1416 -344 Top 2 ;Cable\nResistance
RECTANGLE Normal 1488 -80 1344 -352 2
