Version 4
SHEET 1 1672 680
WIRE 288 32 -16 32
WIRE 448 32 288 32
WIRE 480 32 448 32
WIRE 576 32 560 32
WIRE 592 32 576 32
WIRE 912 32 688 32
WIRE 1072 32 912 32
WIRE 1184 32 1072 32
WIRE 1280 32 1184 32
WIRE -16 48 -16 32
WIRE 1072 48 1072 32
WIRE 1184 48 1184 32
WIRE 1280 48 1280 32
WIRE 288 96 288 32
WIRE 672 96 672 80
WIRE -16 144 -16 128
WIRE 448 144 448 32
WIRE 576 144 576 32
WIRE 1184 144 1184 112
WIRE 1280 144 1280 128
WIRE 912 160 912 32
WIRE 208 208 192 208
WIRE 288 208 288 176
WIRE 288 208 272 208
WIRE 384 208 288 208
WIRE 672 208 672 176
WIRE 672 208 640 208
WIRE 704 208 672 208
WIRE 864 208 848 208
WIRE 288 224 288 208
WIRE 912 288 912 240
WIRE 912 288 640 288
WIRE 928 288 912 288
WIRE 1024 288 1008 288
WIRE 288 320 288 304
WIRE 304 368 288 368
WIRE 384 368 368 368
WIRE 1072 368 1072 128
WIRE 1072 368 640 368
WIRE 512 432 512 416
FLAG 864 208 0
FLAG 288 320 0
FLAG 288 368 0
FLAG 512 432 0
FLAG 1024 288 0
FLAG 1184 144 0
FLAG -16 144 0
FLAG 1280 144 0
FLAG 192 208 0
FLAG -16 32 IN
FLAG 1280 32 OUT
SYMBOL PowerProducts\\LT4256-2 512 272 R0
SYMATTR InstName U1
SYMBOL res 272 80 R0
SYMATTR InstName R1
SYMATTR Value 64.9K
SYMBOL res 272 208 R0
SYMATTR InstName R2
SYMATTR Value 8.06K
SYMBOL cap 368 352 R90
WINDOW 0 0 32 VBottom 2
WINDOW 3 32 32 VTop 2
SYMATTR InstName C1
SYMATTR Value 33n
SYMBOL cap 848 192 R90
WINDOW 0 0 32 VBottom 2
WINDOW 3 32 32 VTop 2
SYMATTR InstName C2
SYMATTR Value 10n
SYMBOL res 656 80 R0
SYMATTR InstName R3
SYMATTR Value 10
SYMBOL res 800 192 R90
WINDOW 0 0 56 VBottom 2
WINDOW 3 32 56 VTop 2
SYMATTR InstName R4
SYMATTR Value 100
SYMBOL res 576 16 R90
WINDOW 0 0 56 VBottom 2
WINDOW 3 32 56 VTop 2
SYMATTR InstName R5
SYMATTR Value 20m
SYMBOL nmos 592 80 R270
WINDOW 0 57 49 VTop 2
WINDOW 3 27 95 VRight 2
SYMATTR InstName Q1
SYMATTR Value IRF530
SYMBOL res 896 144 R0
SYMATTR InstName R6
SYMATTR Value 36.5K
SYMBOL res 912 304 R270
WINDOW 0 32 56 VTop 2
WINDOW 3 0 56 VBottom 2
SYMATTR InstName R7
SYMATTR Value 4.02K
SYMBOL res 1056 32 R0
SYMATTR InstName R8
SYMATTR Value 27K
SYMBOL cap 1168 48 R0
SYMATTR InstName C3
SYMATTR Value 220µ
SYMBOL voltage -16 32 R0
WINDOW 123 0 0 Left 2
WINDOW 39 0 0 Left 2
SYMATTR InstName V1
SYMATTR Value PWL(2.7m 0 +1u 48)
SYMBOL cap 272 192 R90
WINDOW 0 0 32 VBottom 2
WINDOW 3 32 32 VTop 2
SYMATTR InstName C4
SYMATTR Value .1µ
SYMBOL res 1264 32 R0
SYMATTR InstName Rload
SYMATTR Value 24
TEXT 752 416 Left 2 !.tran 25m
TEXT 600 -16 Bottom 2 ;LT4256-2 - Positive High Voltage Hot Swap Controllers\nSingle 48V, 2A Hot Swap Controller with Auto-Retry
TEXT -32 448 Left 2 ;Note:\n  If the simulation model is not found please update with the "Sync Release" command from the "Tools" menu.\n  It remains the customer's responsibility to verify proper and reliable operation in the actual application.\n  Component substitution and printed circuit board layout may significantly affect circuit performance or reliability.\n  Contact your local sales representative for assistance. This circuit is distributed to customers only for use with LTC parts.\n  Copyright © 2014 Linear Technology Inc. All rights reserved.
