Version 4
SHEET 1 1168 680
WIRE -288 -160 -720 -160
WIRE -160 -160 -288 -160
WIRE 80 -160 -160 -160
WIRE 288 -160 176 -160
WIRE 320 -160 288 -160
WIRE 416 -160 400 -160
WIRE 528 -160 416 -160
WIRE 592 -160 528 -160
WIRE 688 -160 592 -160
WIRE -720 -144 -720 -160
WIRE -288 -144 -288 -160
WIRE 592 -144 592 -160
WIRE 688 -144 688 -160
WIRE -160 -96 -160 -160
WIRE 160 -96 160 -112
WIRE -48 -64 -48 -80
WIRE -720 -48 -720 -64
WIRE -288 -48 -288 -64
WIRE -224 -48 -288 -48
WIRE 592 -48 592 -80
WIRE 688 -48 688 -64
WIRE -288 -16 -288 -48
WIRE 80 0 64 0
WIRE 160 0 160 -16
WIRE 160 0 144 0
WIRE 528 16 528 -160
WIRE -160 32 -160 0
WIRE -48 32 -48 0
WIRE -48 32 -160 32
WIRE 32 32 -48 32
WIRE 32 48 32 32
WIRE 160 48 160 0
WIRE 288 48 288 -160
WIRE 416 48 416 -160
WIRE -160 64 -160 32
WIRE -288 80 -288 48
WIRE -48 112 -48 32
WIRE -32 112 -48 112
WIRE 528 112 528 96
WIRE 528 112 480 112
WIRE 528 128 528 112
WIRE -160 176 -160 144
WIRE -32 176 -160 176
WIRE -160 208 -160 176
WIRE 528 224 528 208
WIRE -32 240 -48 240
WIRE -160 320 -160 288
WIRE 128 320 128 304
WIRE 320 320 320 304
WIRE 320 400 320 384
FLAG -720 -48 0
FLAG 592 -48 0
FLAG 688 -48 0
FLAG 528 224 0
FLAG 320 400 0
FLAG 128 320 0
FLAG -288 80 0
FLAG 64 0 0
FLAG -48 -80 0
FLAG -48 240 0
FLAG -160 320 0
FLAG -720 -160 IN
FLAG 688 -160 OUT
SYMBOL res 144 -112 R0
SYMATTR InstName R1
SYMATTR Value 10
SYMBOL res 304 -144 R270
WINDOW 0 32 56 VTop 2
WINDOW 3 0 56 VBottom 2
SYMATTR InstName R2
SYMATTR Value 10m
SYMBOL res 512 0 R0
SYMATTR InstName R3
SYMATTR Value 57.6K
SYMBOL res 512 112 R0
SYMATTR InstName R4
SYMATTR Value 4.99K
SYMBOL nmos 80 -112 R270
WINDOW 0 57 42 VTop 2
WINDOW 3 -14 72 VLeft 2
SYMATTR InstName Q1
SYMATTR Value FDB33N25
SYMBOL cap 144 -16 R90
WINDOW 0 0 32 VBottom 2
WINDOW 3 32 32 VTop 2
SYMATTR InstName C1
SYMATTR Value 47n
SYMBOL cap 304 320 R0
SYMATTR InstName C2
SYMATTR Value 6.8µ
SYMBOL cap 576 -144 R0
SYMATTR InstName C3
SYMATTR Value 22µ
SYMBOL voltage -720 -160 R0
WINDOW 123 24 138 Left 2
WINDOW 39 24 117 Left 2
SYMATTR InstName V1
SYMATTR Value EXP(12 250 5m 10m 10m 150m)
SYMBOL res -304 -160 R0
SYMATTR InstName R5
SYMATTR Value 1K
SYMBOL zener -304 48 M180
WINDOW 0 24 64 Left 2
WINDOW 3 24 0 Left 2
SYMATTR InstName D1
SYMATTR Value 1N5371B
SYMBOL res -176 48 R0
SYMATTR InstName R6
SYMATTR Value 124K
SYMBOL res -176 192 R0
SYMATTR InstName R7
SYMATTR Value 49.9K
SYMBOL cap -64 -64 R0
SYMATTR InstName C4
SYMATTR Value 0.1µ
SYMBOL LT4363-2 208 176 R0
SYMATTR InstName U1
SYMBOL res 672 -160 R0
SYMATTR InstName Rload
SYMATTR Value 100
SYMBOL npn -224 -96 R0
SYMATTR InstName Q2
SYMATTR Value 2N5550
TEXT 472 344 Left 2 !.tran 25 startup
TEXT 152 -208 Bottom 2 ;LT4363 - High Voltage Surge Stopper with Current Limit\nOvervoltage Regulator with 250V Surge Protection\nInput: 5.5V to 250V     Output: Clamped at 16V Max\n(LT4363-2 restarts after a cool down period from a persistant fault)
TEXT -632 408 Left 2 ;Notes: \n  If the simulation model is not found please update with the "Sync Release" command from the "Tools" menu.\n  It remains the customer's responsibility to verify proper and reliable operation in the actual application.\n  Component substitution and printed circuit board layout may significantly affect circuit performance or reliability.\n  Contact your local sales representative for assistance. This circuit is distributed to customers only for use with LTC parts.\n  Copyright © 2012 Linear Technology Inc.  All rights reserved.
