Version 4
SHEET 1 5320 2776
WIRE 1920 640 1536 640
WIRE 2192 640 1920 640
WIRE 2400 640 2288 640
WIRE 2512 640 2400 640
WIRE 2592 640 2512 640
WIRE 2752 640 2592 640
WIRE 1536 656 1536 640
WIRE 2592 656 2592 640
WIRE 2752 656 2752 640
WIRE 1920 672 1920 640
WIRE 2912 672 2800 672
WIRE 2912 688 2912 672
WIRE 2272 704 2272 688
WIRE 2816 720 2800 720
WIRE 2592 752 2592 736
WIRE 2752 752 2752 736
WIRE 1536 768 1536 736
WIRE 2512 784 2512 640
WIRE 2912 784 2912 768
WIRE 1808 800 1776 800
WIRE 1920 800 1920 752
WIRE 1920 800 1872 800
WIRE 2096 800 1920 800
WIRE 2176 800 2160 800
WIRE 2272 800 2272 784
WIRE 2272 800 2240 800
WIRE 1920 848 1920 800
WIRE 2096 848 2096 800
WIRE 2272 848 2272 800
WIRE 2400 848 2400 640
WIRE 2512 1056 2512 864
WIRE 2512 1056 2464 1056
WIRE 2512 1072 2512 1056
WIRE 2272 1136 2272 1120
WIRE 2032 1152 2032 1120
WIRE 2512 1168 2512 1152
WIRE 2272 1216 2272 1200
FLAG 1536 768 0
FLAG 1536 640 IN
FLAG 2752 640 OUT
FLAG 2816 720 0
FLAG 2032 1152 0
FLAG 2272 1216 0
FLAG 2512 1168 0
FLAG 2592 752 0
FLAG 2752 752 0
FLAG 2912 784 0
FLAG 1776 800 0
FLAG 2160 800 0
SYMBOL SW 2752 752 R180
WINDOW 0 -8 104 Right 0
WINDOW 3 -24 0 Right 0
SYMATTR InstName S1
SYMATTR Value SHORT
SYMBOL voltage 1536 640 R0
WINDOW 123 42 61 Left 0
WINDOW 39 30 87 Left 0
WINDOW 3 36 36 Left 0
WINDOW 0 29 12 Left 0
WINDOW 40 17 115 Left 0
SYMATTR Value2 80m 12 80.2m
SYMATTR SpiceLine 80 90m 45 100m
SYMATTR Value PWL(0 0 1m 12
SYMATTR InstName V1
SYMATTR SpiceLine2 26.9 120m 12)
SYMBOL voltage 2912 672 R0
WINDOW 123 32 80 Left 0
WINDOW 39 17 102 Left 0
WINDOW 3 34 50 Left 0
SYMATTR Value2 0 201m 1 220m
SYMATTR SpiceLine 1 221m 0)
SYMATTR Value PWL(0 0 200m
SYMATTR InstName V2
SYMBOL res 2256 688 R0
SYMATTR InstName R1
SYMATTR Value 10
SYMBOL res 2496 768 R0
SYMATTR InstName R2
SYMATTR Value 118K
SYMBOL res 2496 1056 R0
SYMATTR InstName R3
SYMATTR Value 4.99K
SYMBOL cap 2256 1136 R0
SYMATTR InstName C1
SYMATTR Value .1µ
SYMBOL LT4356-1 2144 1008 R0
SYMATTR InstName U1
SYMBOL nmos 2192 688 R270
WINDOW 0 58 45 VTop 0
WINDOW 3 -12 71 VLeft 0
SYMATTR InstName Q1
SYMATTR Value IRFH5015
SYMBOL res 1904 656 R0
SYMATTR InstName R4
SYMATTR Value 1K
SYMBOL zener 1808 816 R270
WINDOW 0 36 32 VTop 0
WINDOW 3 -4 32 VBottom 0
SYMATTR InstName D1
SYMATTR Value DFLZ33
SYMBOL cap 2240 784 R90
WINDOW 3 32 32 VTop 0
WINDOW 0 0 32 VBottom 0
SYMATTR Value .047µ
SYMATTR InstName C2
SYMBOL res 2576 640 R0
SYMATTR InstName Rload
SYMATTR Value 50
TEXT 2632 1008 Left 0 !.tran 300m
TEXT 2632 1048 Left 0 !.model SHORT SW(Ron=10m Roff=1G Vt=0.5 Vh=-.1)
TEXT 1568 1240 Left 0 ;Note:\n  If the simulation model is not found please update with the "Sync Release" command from the "Tools" menu.\n  It remains the customer's responsibility to verify proper and reliable operation in the actual application.\n  Component substitution and printed circuit board layout may significantly affect circuit performance or reliability.\n  Contact your local sales representative for assistance. This circuit is distributed to customers only for use with LTC parts.\n  Copyright © 2010 Linear Technology Inc. All rights reserved.
TEXT 2280 584 Bottom 0 ;LT4356 - Surge Stopper\n24V Overvoltage Regulator that Withstands 150V at Vin
