Version 4
SHEET 1 2304 1896
WIRE -496 -272 -704 -272
WIRE -224 -272 -416 -272
WIRE 0 -272 -224 -272
WIRE 640 -272 0 -272
WIRE 672 -272 640 -272
WIRE 880 -272 768 -272
WIRE 944 -272 880 -272
WIRE 1056 -272 944 -272
WIRE 944 -256 944 -272
WIRE 1056 -256 1056 -272
WIRE 80 -208 48 -208
WIRE 192 -208 160 -208
WIRE 944 -160 944 -192
WIRE 1056 -160 1056 -176
WIRE -704 -112 -704 -272
WIRE -496 -112 -704 -112
WIRE -224 -112 -416 -112
WIRE -64 -112 -224 -112
WIRE 48 -112 48 -208
WIRE 48 -112 -64 -112
WIRE 96 -112 48 -112
WIRE 192 -112 192 -208
WIRE 192 -112 160 -112
WIRE 224 -112 192 -112
WIRE 320 -112 288 -112
WIRE -704 48 -704 -112
WIRE -496 48 -704 48
WIRE -224 48 -416 48
WIRE -128 48 -224 48
WIRE 48 48 -128 48
WIRE 96 48 48 48
WIRE 192 48 192 -112
WIRE 192 48 160 48
WIRE 336 48 192 48
WIRE 640 48 640 -272
WIRE 640 48 624 48
WIRE 336 112 320 112
WIRE 688 112 688 -224
WIRE 688 112 624 112
WIRE 48 144 48 48
WIRE 80 144 48 144
WIRE 192 144 192 48
WIRE 192 144 160 144
WIRE 336 176 256 176
WIRE 880 176 880 -272
WIRE 880 176 624 176
WIRE 256 240 256 176
WIRE 640 240 624 240
WIRE 0 288 0 -272
WIRE 176 288 0 288
WIRE 304 288 272 288
WIRE -64 368 -64 -112
WIRE 640 368 -64 368
WIRE 672 368 640 368
WIRE 880 368 880 176
WIRE 880 368 768 368
WIRE 80 416 48 416
WIRE 192 416 160 416
WIRE 0 512 0 288
WIRE 48 512 48 416
WIRE 48 512 0 512
WIRE 96 512 48 512
WIRE 192 512 192 416
WIRE 192 512 160 512
WIRE 224 512 192 512
WIRE 320 512 288 512
WIRE -128 608 -128 48
WIRE 48 608 -128 608
WIRE 96 608 48 608
WIRE 192 608 192 512
WIRE 192 608 160 608
WIRE 336 608 192 608
WIRE 640 608 640 368
WIRE 640 608 624 608
WIRE 336 672 320 672
WIRE 688 672 688 416
WIRE 688 672 624 672
WIRE 48 704 48 608
WIRE 80 704 48 704
WIRE 192 704 192 608
WIRE 192 704 160 704
WIRE 336 736 256 736
WIRE 880 736 880 368
WIRE 880 736 624 736
WIRE 256 800 256 736
WIRE 640 800 624 800
WIRE -64 848 -64 368
WIRE 176 848 -64 848
WIRE 288 848 272 848
WIRE -128 928 -128 608
WIRE 640 928 -128 928
WIRE 672 928 640 928
WIRE 880 928 880 736
WIRE 880 928 768 928
WIRE 80 1008 48 1008
WIRE 192 1008 160 1008
WIRE -64 1104 -64 848
WIRE 48 1104 48 1008
WIRE 48 1104 -64 1104
WIRE 96 1104 48 1104
WIRE 192 1104 192 1008
WIRE 192 1104 160 1104
WIRE 224 1104 192 1104
WIRE 320 1104 288 1104
WIRE 0 1200 0 512
WIRE 48 1200 0 1200
WIRE 96 1200 48 1200
WIRE 192 1200 192 1104
WIRE 192 1200 160 1200
WIRE 336 1200 192 1200
WIRE 640 1200 640 928
WIRE 640 1200 624 1200
WIRE 336 1264 320 1264
WIRE 688 1264 688 976
WIRE 688 1264 624 1264
WIRE 48 1296 48 1200
WIRE 80 1296 48 1296
WIRE 192 1296 192 1200
WIRE 192 1296 160 1296
WIRE 336 1328 240 1328
WIRE 880 1328 880 928
WIRE 880 1328 624 1328
WIRE 240 1392 240 1328
WIRE 640 1392 624 1392
WIRE -128 1440 -128 928
WIRE 160 1440 -128 1440
WIRE 272 1440 256 1440
FLAG 1056 -272 OUT
FLAG 944 -160 0
FLAG 1056 -160 0
FLAG -224 -272 LINE1
FLAG 304 288 0
FLAG -224 -112 LINE2
FLAG 288 848 0
FLAG -224 48 LINE3
FLAG 272 1440 0
FLAG 640 240 0
FLAG 320 -112 0
FLAG 640 800 0
FLAG 320 512 0
FLAG 320 1104 0
FLAG 640 1392 0
FLAG -704 -112 NEUTRAL
SYMBOL voltage -400 -272 R90
WINDOW 123 74 56 VTop 2
WINDOW 39 53 56 VTop 2
WINDOW 0 -32 56 VBottom 2
WINDOW 3 32 56 VTop 2
SYMATTR SpiceLine Rser=1u
SYMATTR InstName V1
SYMATTR Value SINE(0 {24*1.414} 60 0 0 0)
SYMBOL nmos 768 -224 M270
WINDOW 0 56 43 VTop 2
WINDOW 3 -15 73 VLeft 2
SYMATTR InstName Q1
SYMATTR Value IPB039N10N3
SYMBOL LT4320-1 480 144 R0
SYMATTR InstName U1
SYMBOL voltage -400 -112 R90
WINDOW 123 74 56 VTop 2
WINDOW 39 53 56 VTop 2
WINDOW 0 -32 56 VBottom 2
WINDOW 3 32 56 VTop 2
SYMATTR SpiceLine Rser=1u
SYMATTR InstName V2
SYMATTR Value SINE(0 {24*1.414} 60 {1/180} 0 0)
SYMBOL voltage -400 48 R90
WINDOW 123 74 56 VTop 2
WINDOW 39 53 56 VTop 2
WINDOW 0 -32 56 VBottom 2
WINDOW 3 32 56 VTop 2
SYMATTR SpiceLine Rser=1u
SYMATTR InstName V3
SYMATTR Value SINE(0 {24*1.414} 60 {2/180} 0 0)
SYMBOL cap 928 -256 R0
SYMATTR InstName C1
SYMATTR Value 10µ
SYMATTR SpiceLine Rser=1
SYMBOL res 1040 -272 R0
SYMATTR InstName Rload
SYMATTR Value 5
SYMBOL nmos 176 240 M90
WINDOW 0 -3 48 VBottom 2
WINDOW 3 71 44 VTop 2
SYMATTR InstName Q2
SYMATTR Value IPB039N10N3
SYMBOL diode 288 -96 M270
WINDOW 0 32 32 VTop 2
WINDOW 3 0 32 VBottom 2
SYMATTR InstName D1
SYMATTR Value 1N4148
SYMBOL res 64 -192 R270
WINDOW 0 32 56 VTop 2
WINDOW 3 0 56 VBottom 2
SYMATTR InstName R2
SYMATTR Value 100K
SYMBOL res 64 160 R270
WINDOW 0 32 56 VTop 2
WINDOW 3 0 56 VBottom 2
SYMATTR InstName R3
SYMATTR Value 100K
SYMBOL nmos 768 416 M270
WINDOW 0 56 43 VTop 2
WINDOW 3 -15 73 VLeft 2
SYMATTR InstName Q3
SYMATTR Value IPB039N10N3
SYMBOL LT4320-1 480 704 R0
SYMATTR InstName U2
SYMBOL nmos 176 800 M90
WINDOW 0 -2 43 VBottom 2
WINDOW 3 73 43 VTop 2
SYMATTR InstName Q4
SYMATTR Value IPB039N10N3
SYMBOL diode 288 528 M270
WINDOW 0 32 32 VTop 2
WINDOW 3 0 32 VBottom 2
SYMATTR InstName D2
SYMATTR Value 1N4148
SYMBOL res 64 432 R270
WINDOW 0 32 56 VTop 2
WINDOW 3 0 56 VBottom 2
SYMATTR InstName R4
SYMATTR Value 100K
SYMBOL res 64 720 R270
WINDOW 0 32 56 VTop 2
WINDOW 3 0 56 VBottom 2
SYMATTR InstName R5
SYMATTR Value 100K
SYMBOL nmos 768 976 M270
WINDOW 0 56 43 VTop 2
WINDOW 3 -15 73 VLeft 2
SYMATTR InstName Q5
SYMATTR Value IPB039N10N3
SYMBOL LT4320-1 480 1296 R0
SYMATTR InstName U3
SYMBOL nmos 160 1392 M90
WINDOW 0 -6 45 VBottom 2
WINDOW 3 75 42 VTop 2
SYMATTR InstName Q6
SYMATTR Value IPB039N10N3
SYMBOL diode 288 1120 M270
WINDOW 0 32 32 VTop 2
WINDOW 3 0 32 VBottom 2
SYMATTR InstName D3
SYMATTR Value 1N4148
SYMBOL res 64 1024 R270
WINDOW 0 32 56 VTop 2
WINDOW 3 0 56 VBottom 2
SYMATTR InstName R6
SYMATTR Value 100K
SYMBOL res 64 1312 R270
WINDOW 0 32 56 VTop 2
WINDOW 3 0 56 VBottom 2
SYMATTR InstName R7
SYMATTR Value 100K
SYMBOL diode 160 -128 R90
WINDOW 0 0 32 VBottom 2
WINDOW 3 32 32 VTop 2
SYMATTR InstName D4
SYMATTR Value 1N4148
SYMBOL diode 160 32 R90
WINDOW 0 0 32 VBottom 2
WINDOW 3 32 32 VTop 2
SYMATTR InstName D5
SYMATTR Value 1N4148
SYMBOL diode 160 496 R90
WINDOW 0 0 32 VBottom 2
WINDOW 3 32 32 VTop 2
SYMATTR InstName D6
SYMATTR Value 1N4148
SYMBOL diode 160 592 R90
WINDOW 0 0 32 VBottom 2
WINDOW 3 32 32 VTop 2
SYMATTR InstName D7
SYMATTR Value 1N4148
SYMBOL diode 160 1088 R90
WINDOW 0 0 32 VBottom 2
WINDOW 3 32 32 VTop 2
SYMATTR InstName D8
SYMATTR Value 1N4148
SYMBOL diode 160 1184 R90
WINDOW 0 0 32 VBottom 2
WINDOW 3 32 32 VTop 2
SYMATTR InstName D9
SYMATTR Value 1N4148
TEXT 928 1432 Left 2 !.tran 100m
TEXT -464 1496 Left 2 ;Notes:\n  If the simulation model is not found please update with the "Sync Release" command from the "Tools" menu.\n  It remains the customer's responsibility to verify proper and reliable operation in the actual application.\n  Component substitution and printed circuit board layout may significantly affect circuit performance or reliability.\n  Contact your local sales representative for assistance. This circuit is distributed to customers only for use with LTC parts.\n  Copyright © 2016 Linear Technology Inc. All rights reserved.
TEXT 288 -304 Bottom 2 ;LT4320-1 - Ideal Diode Bridge Controller\nHighly Efficient 3-Phase Bridge Rectifier\nInput: 5VAC to 28VAC RMS    Output: 70V @ 25A max
