Version 4
SHEET 1 5320 2776
WIRE 1744 624 1504 624
WIRE 1824 624 1744 624
WIRE 1952 624 1824 624
WIRE 1968 624 1952 624
WIRE 2064 624 2048 624
WIRE 2192 624 2064 624
WIRE 2400 624 2288 624
WIRE 2528 624 2400 624
WIRE 2640 624 2528 624
WIRE 2768 624 2640 624
WIRE 1504 640 1504 624
WIRE 2640 640 2640 624
WIRE 2768 640 2768 624
WIRE 1920 656 1952 624
WIRE 2096 656 2064 624
WIRE 2912 656 2816 656
WIRE 2272 688 2272 672
WIRE 2912 688 2912 656
WIRE 2832 704 2816 704
WIRE 1504 736 1504 720
WIRE 2640 736 2640 720
WIRE 2768 736 2768 720
WIRE 2192 800 2176 800
WIRE 2272 800 2272 768
WIRE 2272 800 2256 800
WIRE 2912 800 2912 768
WIRE 1920 848 1920 656
WIRE 2096 848 2096 656
WIRE 2272 848 2272 800
WIRE 2400 848 2400 624
WIRE 1824 928 1824 624
WIRE 1840 928 1824 928
WIRE 1744 960 1744 624
WIRE 2528 960 2528 624
WIRE 1744 1056 1744 1040
WIRE 1840 1056 1744 1056
WIRE 2528 1056 2528 1040
WIRE 2528 1056 2464 1056
WIRE 1744 1072 1744 1056
WIRE 2528 1088 2528 1056
WIRE 2272 1136 2272 1120
WIRE 2032 1152 2032 1120
WIRE 1744 1168 1744 1152
WIRE 2528 1184 2528 1168
WIRE 2272 1216 2272 1200
FLAG 1504 736 0
FLAG 1504 624 IN
FLAG 2768 624 OUT
FLAG 2832 704 0
FLAG 1744 1168 0
FLAG 2032 1152 0
FLAG 2272 1216 0
FLAG 2528 1184 0
FLAG 2640 736 0
FLAG 2768 736 0
FLAG 2912 800 0
FLAG 2176 800 0
SYMBOL SW 2768 736 R180
WINDOW 0 -8 104 Right 0
WINDOW 3 -17 0 Right 0
SYMATTR InstName S1
SYMATTR Value SHORT
SYMBOL voltage 1504 624 R0
WINDOW 123 37 70 Left 0
WINDOW 3 38 47 Left 0
WINDOW 39 36 94 Left 0
WINDOW 40 33 120 Left 0
SYMATTR Value2 80m 12 80.2m 80
SYMATTR Value PWL(0 0 1m 12
SYMATTR SpiceLine 90m 45 100m 26.9
SYMATTR SpiceLine2 120m 12)
SYMATTR InstName V1
SYMBOL voltage 2912 672 R0
WINDOW 123 0 0 Left 0
WINDOW 39 0 0 Left 0
WINDOW 3 12 104 Left 0
SYMATTR Value PWL(0 0 200m 0 201m 1 220m 1 221m 0)
SYMATTR InstName V2
SYMBOL res 1728 944 R0
SYMATTR InstName R1
SYMATTR Value 383K
SYMBOL res 1728 1056 R0
SYMATTR InstName R2
SYMATTR Value 100K
SYMBOL res 1952 640 R270
WINDOW 0 32 56 VTop 0
WINDOW 3 0 56 VBottom 0
SYMATTR InstName R3
SYMATTR Value 10m
SYMBOL res 2256 672 R0
SYMATTR InstName R4
SYMATTR Value 10
SYMBOL res 2512 944 R0
SYMATTR InstName R5
SYMATTR Value 102K
SYMBOL res 2512 1072 R0
SYMATTR InstName R6
SYMATTR Value 4.99K
SYMBOL cap 2256 1136 R0
SYMATTR InstName C2
SYMATTR Value .1µ
SYMBOL LT4356-1 2144 1008 R0
SYMATTR InstName U1
SYMBOL nmos 2192 672 R270
WINDOW 0 58 45 VTop 0
WINDOW 3 -21 68 VLeft 0
SYMATTR InstName Q1
SYMATTR Value IRF1310
SYMBOL res 2624 624 R0
SYMATTR InstName Rload
SYMATTR Value 50
SYMBOL cap 2256 784 R90
WINDOW 3 32 32 VTop 0
WINDOW 0 0 32 VBottom 0
SYMATTR Value .047µ
SYMATTR InstName C1
TEXT 2728 1008 Left 0 !.tran 300m
TEXT 2624 1192 Left 0 !.model SHORT SW(Ron=10m Roff=1G Vt=0.5 Vh=-.1)
TEXT 2352 576 Bottom 0 ;LT4356 - Surge Stopper\n4A, 12V Overvoltage Output Regulator
TEXT 1592 1224 Left 0 ;Note:\n  If the simulation model is not found please update with the "Sync Release" command from the "Tools" menu.\n  It remains the customer's responsibility to verify proper and reliable operation in the actual application.\n  Component substitution and printed circuit board layout may significantly affect circuit performance or reliability.\n  Contact your local sales representative for assistance. This circuit is distributed to customers only for use with LTC parts.\n  Copyright © 2010 Linear Technology Inc. All rights reserved.
