Version 4
SHEET 1 2004 852
WIRE 432 48 384 48
WIRE 560 48 512 48
WIRE 736 80 704 80
WIRE 848 80 816 80
WIRE 448 128 432 128
WIRE 464 128 448 128
WIRE 432 144 432 128
WIRE 464 160 464 128
WIRE 208 192 0 192
WIRE 256 192 208 192
WIRE 384 192 384 48
WIRE 384 192 336 192
WIRE 416 192 384 192
WIRE 784 192 784 176
WIRE -112 208 -112 192
WIRE 560 208 560 48
WIRE 560 208 528 208
WIRE 592 208 560 208
WIRE 704 208 704 80
WIRE 704 208 672 208
WIRE 752 208 704 208
WIRE 0 224 0 192
WIRE 208 224 208 192
WIRE 416 224 384 224
WIRE 848 224 848 80
WIRE 848 224 816 224
WIRE 944 224 848 224
WIRE 752 240 704 240
WIRE 784 272 784 256
WIRE 432 288 432 272
WIRE -112 304 -112 288
WIRE 464 304 464 256
WIRE 0 336 0 304
WIRE 208 336 208 304
WIRE 208 336 0 336
WIRE 384 336 384 224
WIRE 384 336 208 336
WIRE 0 352 0 336
WIRE -112 384 -112 368
WIRE 448 400 448 384
WIRE 416 416 384 416
WIRE 560 432 480 432
WIRE 592 432 560 432
WIRE 704 432 704 240
WIRE 704 432 672 432
WIRE 736 432 704 432
WIRE 896 432 816 432
WIRE 0 448 0 432
WIRE 208 448 208 336
WIRE 416 448 208 448
WIRE -112 480 -112 464
WIRE 448 480 448 464
WIRE 384 528 384 416
WIRE 560 528 560 432
WIRE 560 528 384 528
FLAG -112 304 0
FLAG -112 480 0
FLAG -112 192 +V
FLAG -112 368 -V
FLAG 448 128 +V
FLAG 0 448 0
FLAG 448 480 -V
FLAG 944 224 OUT
FLAG 464 304 0
FLAG 784 176 +V
FLAG 432 288 -V
FLAG 784 272 -V
FLAG 448 384 +V
FLAG 0 192 IN
FLAG 896 432 0
SYMBOL Opamps\\LT1678 784 224 R0
SYMATTR InstName U2
SYMBOL voltage -112 192 R0
WINDOW 123 0 0 Left 2
WINDOW 39 0 0 Left 2
SYMATTR InstName V1
SYMATTR Value 15
SYMBOL voltage -112 368 R0
WINDOW 123 0 0 Left 2
WINDOW 39 0 0 Left 2
SYMATTR InstName V3
SYMATTR Value -15
SYMBOL res 832 64 R90
WINDOW 0 0 56 VBottom 2
WINDOW 3 32 56 VTop 2
SYMATTR InstName R8
SYMATTR Value 5.11K
SYMATTR SpiceLine tol=1 pwr=0.1
SYMBOL res 832 416 R90
WINDOW 0 0 56 VBottom 2
WINDOW 3 32 56 VTop 2
SYMATTR InstName R9
SYMATTR Value 5.11K
SYMATTR SpiceLine tol=1 pwr=0.1
SYMBOL res 688 192 R90
WINDOW 0 0 56 VBottom 2
WINDOW 3 32 56 VTop 2
SYMATTR InstName R10
SYMATTR Value 1.00K
SYMATTR SpiceLine tol=1 pwr=0.1
SYMBOL res 688 416 R90
WINDOW 0 0 56 VBottom 2
WINDOW 3 32 56 VTop 2
SYMATTR InstName R11
SYMATTR Value 1.00K
SYMATTR SpiceLine tol=1 pwr=0.1
SYMBOL res 352 176 R90
WINDOW 0 0 56 VBottom 2
WINDOW 3 32 56 VTop 2
SYMATTR InstName R12
SYMATTR Value 10
SYMATTR SpiceLine tol=1 pwr=0.1
SYMBOL res 528 32 R90
WINDOW 0 0 56 VBottom 2
WINDOW 3 32 56 VTop 2
SYMATTR InstName R3
SYMATTR Value 1.00K
SYMATTR SpiceLine tol=1 pwr=0.1
SYMBOL current 0 304 M180
WINDOW 3 24 0 Left 2
WINDOW 123 24 -42 Left 2
WINDOW 39 24 -21 Left 2
WINDOW 0 24 80 Left 2
SYMATTR Value SINE(0 1 10K)
SYMATTR InstName I1
SYMBOL voltage 0 336 R0
WINDOW 123 24 138 Left 2
WINDOW 39 24 117 Left 2
SYMATTR InstName VCOM
SYMATTR Value 3
SYMBOL res 192 208 R0
SYMATTR InstName Rsense
SYMATTR Value 0.01
SYMATTR SpiceLine tol=1 pwr=0.1
SYMBOL Opamps\\LT1678 448 432 R0
SYMATTR InstName U3
SYMBOL Opamps\\LT6018 464 208 R0
SYMATTR InstName U1
TEXT -72 552 Left 2 ;Note:\n  If the simulation model is not found please update with the "Sync Release" command from the "Tools" menu.\n  It remains the customer's responsibility to verify proper and reliable operation in the actual application.\n  Component substitution and printed circuit board layout may significantly affect circuit performance or reliability\n  Contact your local sales representative for assistance. This circuit is distributed to customers only for use with LTC parts\n  Copyright © 2017 Linear Technology Inc. All rights reserved.
TEXT 584 8 Bottom 2 ;LT6018 - Ultralow Disortion, Ultralow Noise Precision Op Amp\nLT1678 - Low Noise RR Precision Op Amp\nLow Noise Precision Current Monitor\nInput: +/- 15 V
TEXT 984 512 Left 2 !.tran 10m
