Version 4
SHEET 1 2004 796
WIRE 416 48 320 48
WIRE 592 48 496 48
WIRE 768 80 736 80
WIRE 880 80 848 80
WIRE 448 128 432 128
WIRE 464 128 448 128
WIRE 432 144 432 128
WIRE 464 160 464 128
WIRE 320 192 320 48
WIRE 416 192 320 192
WIRE 800 192 800 176
WIRE 592 208 592 48
WIRE 592 208 528 208
WIRE 624 208 592 208
WIRE 736 208 736 80
WIRE 736 208 704 208
WIRE 768 208 736 208
WIRE -80 224 -80 208
WIRE 256 224 32 224
WIRE 416 224 256 224
WIRE 880 224 880 80
WIRE 880 224 832 224
WIRE 896 224 880 224
WIRE 32 240 32 224
WIRE 320 240 320 192
WIRE 768 240 736 240
WIRE 464 272 464 256
WIRE 800 272 800 256
WIRE 432 288 432 272
WIRE -80 320 -80 304
WIRE 32 352 32 320
WIRE 176 352 32 352
WIRE 208 352 176 352
WIRE 448 352 432 352
WIRE 464 352 448 352
WIRE 432 368 432 352
WIRE 32 384 32 352
WIRE 464 384 464 352
WIRE -80 400 -80 384
WIRE 208 400 208 352
WIRE 256 400 256 224
WIRE 320 416 320 400
WIRE 416 416 320 416
WIRE 592 432 528 432
WIRE 624 432 592 432
WIRE 736 432 736 240
WIRE 736 432 704 432
WIRE 768 432 736 432
WIRE 896 432 848 432
WIRE 176 448 176 352
WIRE 192 448 176 448
WIRE 416 448 272 448
WIRE 32 480 32 464
WIRE -80 496 -80 480
WIRE 464 496 464 480
WIRE 432 512 432 496
WIRE 320 592 320 416
WIRE 416 592 320 592
WIRE 592 592 592 432
WIRE 592 592 496 592
FLAG -80 320 0
FLAG -80 496 0
FLAG -80 208 +V
FLAG -80 384 -V
FLAG 448 128 +V
FLAG 896 432 0
FLAG 32 480 0
FLAG 432 512 -V
FLAG 896 224 OUT
FLAG 464 272 0
FLAG 464 496 0
FLAG 800 176 +V
FLAG 800 272 -V
FLAG 448 352 +V
FLAG 432 288 -V
FLAG 32 224 IN
SYMBOL Opamps\\LT1678 800 224 R0
SYMATTR InstName U3
SYMBOL voltage -80 208 R0
WINDOW 123 0 0 Left 2
WINDOW 39 0 0 Left 2
SYMATTR InstName V1
SYMATTR Value 15
SYMBOL voltage -80 384 R0
WINDOW 123 0 0 Left 2
WINDOW 39 0 0 Left 2
SYMATTR InstName V3
SYMATTR Value -15
SYMBOL voltage 32 224 R0
WINDOW 123 24 138 Left 2
WINDOW 39 24 117 Left 2
SYMATTR Value SINE(0 .01 10K)
SYMATTR InstName V4
SYMBOL res 864 64 R90
WINDOW 0 0 56 VBottom 2
WINDOW 3 32 56 VTop 2
SYMATTR InstName R8
SYMATTR Value 5.11K
SYMATTR SpiceLine tol=1 pwr=0.1
SYMBOL res 864 416 R90
WINDOW 0 0 56 VBottom 2
WINDOW 3 32 56 VTop 2
SYMATTR InstName R9
SYMATTR Value 5.11K
SYMATTR SpiceLine tol=1 pwr=0.1
SYMBOL res 720 192 R90
WINDOW 0 0 56 VBottom 2
WINDOW 3 32 56 VTop 2
SYMATTR InstName R10
SYMATTR Value 1.00K
SYMATTR SpiceLine tol=1 pwr=0.1
SYMBOL res 720 416 R90
WINDOW 0 0 56 VBottom 2
WINDOW 3 32 56 VTop 2
SYMATTR InstName R11
SYMATTR Value 1.00K
SYMATTR SpiceLine tol=1 pwr=0.1
SYMBOL res 304 224 R0
SYMATTR InstName R12
SYMATTR Value 22.1
SYMATTR SpiceLine tol=1 pwr=0.1
SYMBOL res 304 304 R0
SYMATTR InstName R13
SYMATTR Value 22.1
SYMATTR SpiceLine tol=1 pwr=0.1
SYMBOL res 512 32 R90
WINDOW 0 0 56 VBottom 2
WINDOW 3 32 56 VTop 2
SYMATTR InstName R3
SYMATTR Value 432
SYMATTR SpiceLine tol=1 pwr=0.1
SYMBOL res 512 576 R90
WINDOW 0 0 56 VBottom 2
WINDOW 3 32 56 VTop 2
SYMATTR InstName R4
SYMATTR Value 432
SYMATTR SpiceLine tol=1 pwr=0.1
SYMBOL voltage 32 368 R0
WINDOW 123 24 138 Left 2
WINDOW 39 24 117 Left 2
SYMATTR InstName VCOM
SYMATTR Value 3
SYMBOL e 288 448 R90
WINDOW 0 39 1 VRight 2
WINDOW 3 35 85 VRight 2
SYMATTR InstName E1
SYMATTR Value -1
SYMBOL Opamps\\LT6018 464 208 R0
SYMATTR InstName U1
SYMBOL Opamps\\LT6018 464 432 R0
SYMATTR InstName U2
TEXT -56 624 Left 2 ;Note:\n  If the simulation model is not found please update with the "Sync Release" command from the "Tools" menu.\n  It remains the customer's responsibility to verify proper and reliable operation in the actual application.\n  Component substitution and printed circuit board layout may significantly affect circuit performance or reliability\n  Contact your local sales representative for assistance. This circuit is distributed to customers only for use with LTC parts\n  Copyright © 2017 Linear Technology Inc. All rights reserved.
TEXT 520 0 Bottom 2 ;LT6018 - Ultralow Disortion, Ultralow Noise Precision Op Amp\nLT1678 - Low Noise RR Precision Op Amp\nLow Noise, High CMRR Instrumentation Amplifier\nInput: +/- 15 V
TEXT 960 544 Left 2 !.tran 10m
