Version 4
SHEET 1 1468 1396
WIRE -496 608 -912 608
WIRE -400 608 -496 608
WIRE -304 608 -400 608
WIRE -144 608 -224 608
WIRE -64 608 -144 608
WIRE 0 608 -64 608
WIRE -912 624 -912 608
WIRE -496 624 -496 608
WIRE -400 624 -400 608
WIRE -144 624 -144 608
WIRE 0 624 0 608
WIRE -912 720 -912 704
WIRE -496 720 -496 704
WIRE -400 720 -400 704
WIRE -368 720 -400 720
WIRE -144 720 -144 704
WIRE -144 720 -176 720
WIRE 0 720 0 704
WIRE -368 768 -384 768
WIRE -64 768 -64 608
WIRE -64 768 -176 768
WIRE -128 896 -176 896
WIRE -128 912 -128 896
WIRE -128 1008 -128 992
FLAG -128 896 OUT
FLAG -128 1008 0
FLAG 0 720 0
FLAG -496 720 0
FLAG -912 720 0
FLAG -384 768 0
FLAG 0 608 IN
SYMBOL res -208 592 R90
WINDOW 0 0 56 VBottom 2
WINDOW 3 32 56 VTop 2
SYMATTR InstName R1
SYMATTR Value 50m
SYMBOL res -144 896 R0
SYMATTR InstName R2
SYMATTR Value 10k
SYMBOL voltage 0 608 R0
WINDOW 123 0 0 Left 2
WINDOW 39 0 0 Left 2
SYMATTR InstName V1
SYMATTR Value 5
SYMBOL res -512 608 R0
SYMATTR InstName R3
SYMATTR Value 2K
SYMBOL opamps\\LT6106 -272 784 R0
SYMATTR InstName U1
SYMBOL res -160 608 R0
SYMATTR InstName R4
SYMATTR Value 332
SYMBOL res -416 608 R0
SYMATTR InstName R5
SYMATTR Value 332
SYMBOL load2 -912 624 R0
WINDOW 123 25 126 Left 2
WINDOW 39 25 105 Left 2
WINDOW 0 49 12 Left 2
SYMATTR InstName Iload
SYMATTR Value PULSE(0 3 .02 .1m .1m .02 .04)
TEXT -56 992 Left 2 !.tran .3 startup
TEXT -440 560 Bottom 2 ;LT6106 - Low Cost, 36V High Side Current Sense Amplifier\nSingle Supply, Unidirectional Currrent Sense Amplifier\nInput: 2.7V to 36V (44V Abs Max)     Rsense: .O5ohm Shunt with 3A     Output: 0V to 4.5V (Gain of 30)
TEXT -1056 1016 Left 2 ;Note:\n  If the simulation model is not found please update with the "Sync Release" command from the "Tools" menu.\n  It remains the customer's responsibility to verify proper and reliable operation in the actual application.\n  Component substitution and printed circuit board layout may significantly affect circuit performance or reliability.\n  Contact your local sales representative for assistance. This circuit is distributed to customers only for use with LTC parts.\n  Copyright © 2012 Linear Technology Inc. All rights reserved.
