Version 4
SHEET 1 4636 28684
WIRE 1824 80 1664 80
WIRE 1984 80 1920 80
WIRE 2176 80 1984 80
WIRE 2352 80 2256 80
WIRE 2464 80 2352 80
WIRE 1232 96 1136 96
WIRE 1392 96 1232 96
WIRE 1136 112 1136 96
WIRE 2464 112 2464 80
WIRE 1392 128 1392 96
WIRE 2352 128 2352 80
WIRE 2608 128 2512 128
WIRE 1664 144 1664 80
WIRE 1680 144 1664 144
WIRE 1776 144 1760 144
WIRE 2608 144 2608 128
WIRE 2528 176 2512 176
WIRE 1136 208 1136 192
WIRE 1776 208 1776 144
WIRE 1824 208 1824 80
WIRE 1920 208 1920 80
WIRE 1984 208 1984 80
WIRE 1232 240 1232 96
WIRE 1264 240 1232 240
WIRE 1584 240 1520 240
WIRE 1664 240 1664 144
WIRE 1664 240 1584 240
WIRE 2176 240 2096 240
WIRE 2352 240 2352 192
WIRE 2352 240 2256 240
WIRE 2464 240 2464 192
WIRE 2464 240 2352 240
WIRE 2608 240 2608 224
WIRE 1584 288 1584 240
WIRE 1664 368 1664 240
WIRE 1696 368 1664 368
WIRE 1584 384 1584 352
WIRE 1296 400 1280 400
WIRE 1392 400 1392 352
WIRE 1392 400 1360 400
WIRE 1392 416 1392 400
WIRE 1872 512 1872 496
WIRE 1296 544 1280 544
WIRE 1392 544 1392 496
WIRE 1392 544 1376 544
WIRE 1728 544 1728 496
WIRE 1728 544 1392 544
FLAG 1872 512 0
FLAG 1136 208 0
FLAG 2096 240 0
FLAG 2528 176 0
FLAG 2608 240 0
FLAG 1584 384 0
FLAG 1280 544 0
FLAG 1280 400 0
FLAG 2464 80 Load+
FLAG 2464 240 Load-
SYMBOL res 1664 160 R270
WINDOW 0 32 56 VTop 2
WINDOW 3 0 56 VBottom 2
SYMATTR InstName R1
SYMATTR Value 200
SYMBOL LT6110 1872 368 R0
SYMATTR InstName U1
SYMBOL voltage 1136 96 R0
WINDOW 123 0 0 Left 2
WINDOW 39 0 0 Left 2
SYMATTR InstName V3
SYMATTR Value 5
SYMBOL res 2272 64 R90
WINDOW 0 0 56 VBottom 2
WINDOW 3 32 56 VTop 2
SYMATTR InstName R3
SYMATTR Value .25
SYMBOL res 2272 224 R90
WINDOW 0 0 56 VBottom 2
WINDOW 3 32 56 VTop 2
SYMATTR InstName R4
SYMATTR Value .25
SYMBOL sw 2464 208 R180
WINDOW 0 -10 106 Right 2
WINDOW 3 -13 -4 Right 2
SYMATTR InstName S1
SYMATTR Value Sload
SYMBOL voltage 2608 128 R0
WINDOW 123 24 138 Left 2
WINDOW 39 24 117 Left 2
SYMATTR InstName V1
SYMATTR Value PULSE(0 1 5m 500n 500n 2m 10m)
SYMBOL PowerProducts\\LT3080 1392 240 R0
SYMATTR InstName U2
SYMBOL cap 1568 288 R0
SYMATTR InstName C1
SYMATTR Value 1µ
SYMBOL res 1392 528 R90
WINDOW 0 0 56 VBottom 2
WINDOW 3 32 56 VTop 2
SYMATTR InstName R6
SYMATTR Value 1.69K
SYMBOL res 1376 400 R0
SYMATTR InstName R5
SYMATTR Value 301K
SYMBOL cap 2336 128 R0
SYMATTR InstName C2
SYMATTR Value 1µ
SYMBOL cap 1360 384 R90
WINDOW 0 0 32 VBottom 2
WINDOW 3 32 32 VTop 2
SYMATTR InstName C3
SYMATTR Value 100p
TEXT 2176 504 Left 2 !.tran 10m startup
TEXT 1952 576 Left 2 !.model Sload SW(Ron=3 Roff=150 vt=.5 vh=-100m)
TEXT 1792 48 Bottom 2 ;LT6110 - Cable/Wire Drop Compensator\nWire Loss Compensation Using a Current Referenced LDO\nInput: 4.9V to 15V     Output: 3V @ 1A
TEXT 1288 616 Left 2 ;Note:\n  If the simulation model is not found please update with the "Sync Release" command from the "Tools" menu.\n  It remains the customer's responsibility to verify proper and reliable operation in the actual application.\n  Component substitution and printed circuit board layout may significantly affect circuit performance or reliability.\n  Contact your local sales representative for assistance. This circuit is distributed to customers only for use with LTC parts.\n  Copyright © 2013 Linear Technology Inc. All rights reserved.
TEXT 2216 160 Center 2 ;Cable Loss
CIRCLE Normal 2320 320 2112 0 2
