Version 4
SHEET 1 2688 804
WIRE -80 0 -176 0
WIRE 160 0 -80 0
WIRE 240 0 160 0
WIRE 368 0 320 0
WIRE 1184 0 368 0
WIRE 1392 0 1264 0
WIRE -176 16 -176 0
WIRE 160 16 160 0
WIRE 1392 32 1392 0
WIRE 1248 64 1248 48
WIRE -176 112 -176 96
WIRE 160 112 160 96
WIRE 608 112 544 112
WIRE 784 112 688 112
WIRE 1392 128 1392 112
WIRE -80 160 -80 0
WIRE 0 160 -80 160
WIRE 368 160 368 0
WIRE 368 160 320 160
WIRE 624 224 624 208
WIRE -80 272 -176 272
WIRE 0 272 -80 272
WIRE 368 272 320 272
WIRE 416 272 368 272
WIRE 544 272 544 112
WIRE 544 272 496 272
WIRE 592 272 544 272
WIRE -176 288 -176 272
WIRE -80 288 -80 272
WIRE 368 288 368 272
WIRE 784 304 784 112
WIRE 784 304 736 304
WIRE 944 304 896 304
WIRE 1200 304 1200 48
WIRE 1200 304 1168 304
WIRE 592 336 544 336
WIRE 784 368 784 304
WIRE -176 384 -176 368
WIRE -80 384 -80 368
WIRE 0 384 -80 384
WIRE 368 384 368 368
WIRE 368 384 320 384
WIRE 944 384 928 384
WIRE 1232 384 1168 384
WIRE 1248 384 1232 384
WIRE 368 400 368 384
WIRE 624 400 624 384
WIRE 672 400 672 384
WIRE 672 400 624 400
WIRE 624 416 624 400
WIRE 160 448 160 432
WIRE 544 464 544 336
WIRE 784 464 784 448
WIRE 784 464 544 464
WIRE 944 464 784 464
WIRE 1200 464 1168 464
WIRE 1248 464 1200 464
WIRE 784 480 784 464
WIRE 1248 480 1248 464
WIRE 368 496 368 480
WIRE 784 576 784 560
WIRE 1248 576 1248 560
WIRE -80 608 -80 384
WIRE 896 608 896 304
WIRE 896 608 -80 608
WIRE 1008 608 896 608
WIRE 1200 608 1200 464
WIRE 1200 608 1088 608
FLAG -176 112 0
FLAG 160 448 0
FLAG 368 496 0
FLAG 624 416 0
FLAG -176 384 0
FLAG -176 272 +V
FLAG 624 208 +V
FLAG 1232 384 +V
FLAG 1248 576 0
FLAG 928 384 0
FLAG 784 576 0
FLAG 1248 64 0
FLAG -176 0 IN
FLAG 1392 0 OUT
FLAG 1392 128 0
SYMBOL Opamps\\LT6108-2 160 320 R0
SYMATTR InstName U1
SYMBOL Opamps\\LT1783 624 304 R0
SYMATTR InstName U2
SYMBOL SpecialFunctions\\LTC6994-2 1056 384 R0
SYMATTR InstName U3
SYMBOL voltage -176 0 R0
WINDOW 123 0 0 Left 2
WINDOW 39 0 0 Left 2
SYMATTR InstName V1
SYMATTR Value 24
SYMBOL res 224 16 R270
WINDOW 0 32 56 VTop 2
WINDOW 3 0 56 VBottom 2
SYMATTR InstName R1
SYMATTR Value 10m
SYMBOL res 352 272 R0
SYMATTR InstName R2
SYMATTR Value 1.62K
SYMBOL res 352 384 R0
SYMATTR InstName R3
SYMATTR Value 6.34K
SYMBOL res 512 256 R90
WINDOW 0 0 56 VBottom 2
WINDOW 3 32 56 VTop 2
SYMATTR InstName R4
SYMATTR Value 40.2K
SYMBOL res 704 96 R90
WINDOW 0 0 56 VBottom 2
WINDOW 3 32 56 VTop 2
SYMATTR InstName R5
SYMATTR Value 3.66K
SYMBOL voltage -176 272 R0
WINDOW 123 0 0 Left 2
WINDOW 39 0 0 Left 2
SYMATTR InstName V2
SYMATTR Value 5
SYMBOL res 1232 368 R0
SYMATTR InstName R6
SYMATTR Value 172K
SYMBOL res 1232 464 R0
SYMATTR InstName R7
SYMATTR Value 100K
SYMBOL res 768 352 R0
SYMATTR InstName R8
SYMATTR Value 64.9K
SYMBOL res 768 464 R0
SYMATTR InstName R9
SYMATTR Value 301K
SYMBOL sw 1280 0 M270
WINDOW 0 27 17 VLeft 2
WINDOW 3 -26 21 VLeft 2
SYMATTR InstName S1
SYMATTR Value RELAY
SYMBOL res 144 0 R0
SYMATTR InstName R10
SYMATTR Value 100
SYMBOL res -96 272 R0
SYMATTR InstName R11
SYMATTR Value 10K
SYMBOL res 1104 592 R90
WINDOW 0 0 56 VBottom 2
WINDOW 3 32 56 VTop 2
SYMATTR InstName R12
SYMATTR Value 931K
SYMBOL res 1376 16 R0
SYMATTR InstName Rload
SYMATTR Value {LOAD}
TEXT 1184 32 Right 2 !.model RELAY SW(ron=.1 roff=1Meg Vt=2.5 Vh=-.5)
TEXT 1216 672 Left 2 !.tran 3 startup
TEXT 1184 80 Right 2 !.step param LOAD LIST 48 24 16 8 4
TEXT 592 -32 Bottom 2 ;LT6108 - High Side Current Sense Amplifier with Reference and Comparator & LTC6994 - TimerBlox: Delay Block/ Debouncer\nEnergy-Tripped Circuit Breaker with Automatic Delayed Retry  \nInput: 5V to 80V   Threshold: 500mA (Time Interval Varies with Load Current) with a 2.5s Retry Delay\n(More information is available in Design Note 495)
TEXT -120 648 Left 2 ;Note:\n  If the simulation model is not found please update with the "Sync Release" command from the "Tools" menu.\n  It remains the customer's responsibility to verify proper and reliable operation in the actual application.\n  Component substitution and printed circuit board layout may significantly affect circuit performance or reliability.\n  Contact your local sales representative for assistance. This circuit is distributed to customers only for use with LTC parts.\n  Copyright © 2012 Linear Technology Inc. All rights reserved.
TEXT 1176 120 Right 2 ;Rload is stepped to show how \nbreaker time interval varies \nwith load current; higher \ncurrents trips the circuit \nbreaker in less time
