Version 4
SHEET 1 2124 1564
WIRE -1456 320 -1536 320
WIRE -1424 320 -1456 320
WIRE -1072 320 -1136 320
WIRE -928 320 -1072 320
WIRE -256 320 -928 320
WIRE 32 320 -176 320
WIRE 176 320 32 320
WIRE 416 320 256 320
WIRE -1072 336 -1072 320
WIRE -928 336 -928 320
WIRE 32 368 32 320
WIRE -1456 432 -1456 320
WIRE -1424 432 -1456 432
WIRE -1072 432 -1072 416
WIRE -1072 432 -1136 432
WIRE -928 432 -928 400
WIRE -1072 448 -1072 432
WIRE -256 496 -336 496
WIRE 32 496 32 448
WIRE 32 496 -176 496
WIRE 416 496 416 320
WIRE 416 496 32 496
WIRE -1280 512 -1280 496
WIRE -1072 544 -1072 528
WIRE -624 832 -816 832
WIRE -464 832 -528 832
WIRE -256 832 -464 832
WIRE 32 832 -176 832
WIRE 176 832 32 832
WIRE 416 832 256 832
WIRE 32 880 32 832
WIRE -1536 896 -1536 320
WIRE -1536 896 -1632 896
WIRE -1456 896 -1536 896
WIRE -1424 896 -1456 896
WIRE -1072 896 -1136 896
WIRE -912 896 -1072 896
WIRE -816 896 -816 832
WIRE -816 896 -912 896
WIRE -768 896 -816 896
WIRE -672 896 -688 896
WIRE -1632 912 -1632 896
WIRE -1072 912 -1072 896
WIRE -912 912 -912 896
WIRE -672 976 -672 896
WIRE -624 976 -624 832
WIRE -528 976 -528 832
WIRE -464 976 -464 832
WIRE -912 992 -912 976
WIRE -1632 1008 -1632 992
WIRE -1536 1008 -1536 896
WIRE -1456 1008 -1456 896
WIRE -1424 1008 -1456 1008
WIRE -1072 1008 -1072 992
WIRE -1072 1008 -1136 1008
WIRE -256 1008 -336 1008
WIRE 32 1008 32 960
WIRE 32 1008 -176 1008
WIRE 416 1008 416 832
WIRE 416 1008 32 1008
WIRE -1072 1024 -1072 1008
WIRE -976 1024 -1072 1024
WIRE -1536 1088 -1536 1072
WIRE -1280 1088 -1280 1072
WIRE -1072 1120 -1072 1104
WIRE -976 1136 -976 1024
WIRE -752 1136 -976 1136
WIRE -576 1280 -576 1264
WIRE -720 1312 -720 1264
FLAG -1632 1008 0
FLAG -1536 1088 0
FLAG -1632 896 IN
FLAG -576 1280 0
FLAG -336 1008 0
FLAG -720 1312 0
FLAG -912 992 0
FLAG -336 496 0
FLAG -1280 512 0
FLAG -1072 544 0
FLAG -928 432 0
FLAG -1280 1088 0
FLAG -1072 1120 0
SYMBOL voltage -1632 896 R0
WINDOW 123 0 0 Left 2
WINDOW 39 0 0 Left 2
SYMATTR InstName V1
SYMATTR Value 12
SYMBOL cap -1552 1008 R0
SYMATTR InstName C4
SYMATTR Value 22µ
SYMBOL res -784 912 R270
WINDOW 0 32 56 VTop 2
WINDOW 3 0 56 VBottom 2
SYMATTR InstName R7
SYMATTR Value 400
SYMBOL LT6110 -576 1136 R0
SYMATTR InstName U2
SYMBOL res -160 816 R90
WINDOW 0 0 56 VBottom 2
WINDOW 3 32 56 VTop 2
SYMATTR InstName R8
SYMATTR Value .5
SYMBOL res -160 992 R90
WINDOW 0 0 56 VBottom 2
WINDOW 3 32 56 VTop 2
SYMATTR InstName R9
SYMATTR Value .5
SYMBOL cap -928 912 R0
SYMATTR InstName C6
SYMATTR Value 10µ
SYMBOL res -160 304 R90
WINDOW 0 0 56 VBottom 2
WINDOW 3 32 56 VTop 2
SYMATTR InstName R14
SYMATTR Value .5
SYMBOL res -160 480 R90
WINDOW 0 0 56 VBottom 2
WINDOW 3 32 56 VTop 2
SYMATTR InstName R15
SYMATTR Value .5
SYMBOL res 16 864 R0
WINDOW 0 -53 44 Left 2
WINDOW 3 -66 77 Left 2
SYMATTR InstName R13
SYMATTR Value 100K
SYMBOL res 16 352 R0
WINDOW 0 -61 33 Left 2
WINDOW 3 -69 62 Left 2
SYMATTR InstName R16
SYMATTR Value 100K
SYMBOL current 176 832 M90
WINDOW 0 -32 40 VBottom 2
WINDOW 3 32 40 VTop 2
WINDOW 123 0 0 Left 2
WINDOW 39 0 0 Left 2
SYMATTR InstName I3
SYMATTR Value SINE(0.5 0.5 1hz 0 0 270 10)
SYMBOL PowerProducts\\LT1965 -1280 384 R0
SYMATTR InstName U5
SYMBOL res -1088 320 R0
SYMATTR InstName R18
SYMATTR Value 20K
SYMBOL res -1088 432 R0
SYMATTR InstName R19
SYMATTR Value 6.478K
SYMBOL cap -944 336 R0
SYMATTR InstName C13
SYMATTR Value 10µ
SYMBOL PowerProducts\\LT1965 -1280 960 R0
SYMATTR InstName U1
SYMBOL res -1088 896 R0
SYMATTR InstName R1
SYMATTR Value 20K
SYMATTR SpiceLine tol=.01
SYMBOL res -1088 1008 R0
SYMATTR InstName R2
SYMATTR Value 6.478k
SYMATTR SpiceLine tol=.01
SYMBOL current 176 320 M90
WINDOW 0 -32 40 VBottom 2
WINDOW 3 32 40 VTop 2
WINDOW 123 0 0 Left 2
WINDOW 39 0 0 Left 2
SYMATTR InstName I1
SYMATTR Value SINE(0.5 0.5 1hz 0 0 270 10)
TEXT -1560 1328 Left 2 !.tran 3
TEXT -632 144 Bottom 2 ;LT6110 - Cable/Wire Drop Compensator\nWire Loss Compensation Using the LT1965 Linear Regulator\nInput: 12V, Output: 5V, Load: 1A Sine @ 1Hz
TEXT -1560 1376 Left 2 ;Note:\n  If the simulation model is not found please update with the "Sync Release" command from the "Tools" menu.\n  It remains the customer's responsibility to verify proper and reliable operation in the actual application.\n  Component substitution and printed circuit board layout may significantly affect circuit performance or reliability.\n  Contact your local sales representative for assistance. This circuit is distributed to customers only for use with LTC parts.\n  Copyright © 2013 Linear Technology Inc. All rights reserved.
TEXT -216 920 Center 2 ;Wire Loss
TEXT -216 400 Center 2 ;Wire Loss
TEXT 0 280 Left 7 ;+
TEXT 0 792 Left 7 ;+
TEXT 8 520 Left 7 ;-
TEXT 16 1032 Left 7 ;-
TEXT 40 232 Bottom 2 ;Measure Differential Voltage Across R16\nWith the probe, click on "+" node and drag to "-" node
TEXT 48 736 Bottom 2 ;Measure Differential Voltage Across R13\nWith the probe, click on "+" node and drag to "-" node
CIRCLE Normal -112 1088 -320 752 2
CIRCLE Normal -112 576 -320 240 2
