Version 4
SHEET 1 3612 1316
WIRE 368 -112 -240 -112
WIRE -208 -80 -336 -80
WIRE -128 -80 -208 -80
WIRE 192 -80 -128 -80
WIRE -336 -64 -336 -80
WIRE -208 -64 -208 -80
WIRE -128 0 -128 -80
WIRE -112 0 -128 0
WIRE 192 0 192 -80
WIRE 192 0 176 0
WIRE -208 16 -208 0
WIRE -336 32 -336 16
WIRE -240 96 -240 -112
WIRE -208 96 -240 96
WIRE -112 96 -128 96
WIRE 368 96 368 -112
WIRE 368 96 176 96
WIRE 464 96 368 96
WIRE 560 96 464 96
WIRE 656 96 560 96
WIRE 832 96 656 96
WIRE 880 96 832 96
WIRE 928 96 880 96
WIRE 1040 96 1008 96
WIRE 1088 96 1040 96
WIRE 1216 96 1168 96
WIRE 1344 96 1216 96
WIRE 464 112 464 96
WIRE 832 112 832 96
WIRE 1216 112 1216 96
WIRE 1344 112 1344 96
WIRE 368 144 368 96
WIRE -192 192 -224 192
WIRE -112 192 -128 192
WIRE 256 192 176 192
WIRE 464 192 464 176
WIRE 256 208 256 192
WIRE 832 208 832 192
WIRE 880 208 880 96
WIRE 1040 208 1040 96
WIRE 1216 208 1216 176
WIRE 1344 208 1344 192
WIRE 656 256 656 96
WIRE -208 288 -224 288
WIRE -112 288 -128 288
WIRE 256 288 256 272
WIRE 256 288 176 288
WIRE 368 288 368 224
WIRE 368 288 256 288
WIRE 256 304 256 288
WIRE 368 304 368 288
WIRE 560 336 560 96
WIRE 656 368 656 336
WIRE 752 368 656 368
WIRE -112 384 -128 384
WIRE 208 384 176 384
WIRE 256 384 256 368
WIRE 368 384 368 368
WIRE 656 400 656 368
WIRE 208 512 208 384
WIRE 560 512 560 400
WIRE 560 512 208 512
WIRE 656 512 656 480
WIRE 656 512 560 512
WIRE 784 512 784 496
WIRE 928 512 928 496
WIRE 656 528 656 512
WIRE 656 624 656 608
FLAG -128 384 0
FLAG -224 288 0
FLAG -224 192 0
FLAG -336 32 0
FLAG 464 192 0
FLAG -336 -80 IN
FLAG 256 384 0
FLAG 368 384 0
FLAG 928 512 0
FLAG 784 512 0
FLAG -208 16 0
FLAG 1344 96 OUT
FLAG 656 624 0
FLAG 1216 208 0
FLAG 1344 208 0
SYMBOL res -112 272 R90
WINDOW 0 0 56 VBottom 2
WINDOW 3 32 56 VTop 2
SYMATTR InstName R1
SYMATTR Value 100K
SYMBOL cap -128 176 R90
WINDOW 0 0 32 VBottom 2
WINDOW 3 32 32 VTop 2
SYMATTR InstName C1
SYMATTR Value .001µ
SYMBOL voltage -336 -80 R0
SYMATTR InstName V1
SYMATTR Value 12
SYMBOL ind 352 240 M180
WINDOW 0 36 80 Left 2
WINDOW 3 36 40 Left 2
SYMATTR InstName L1
SYMATTR Value 6.8µ
SYMATTR SpiceLine Rser=10m
SYMBOL cap 240 208 R0
SYMATTR InstName C2
SYMATTR Value .47µ
SYMBOL cap 448 112 R0
WINDOW 123 24 77 Left 2
SYMATTR Value 100µ
SYMATTR InstName C3
SYMATTR SpiceLine V=6.3 Irms=0 Rser=0.002 Lser=0 mfg="TDK" pn="C4532X5ROJ47@M" type="X5R"
SYMBOL res 640 240 R0
SYMATTR InstName R2
SYMATTR Value 10K
SYMBOL res 640 384 R0
SYMATTR InstName R3
SYMATTR Value 340K
SYMBOL cap 544 336 R0
SYMATTR InstName C4
SYMATTR Value 180p
SYMBOL schottky 240 368 M180
WINDOW 0 24 64 Left 2
WINDOW 3 24 0 Left 2
SYMATTR InstName D1
SYMATTR Value B540C
SYMATTR Description Diode
SYMATTR Type diode
SYMBOL LT3976 32 192 R0
SYMATTR InstName U1
SYMBOL cap 352 304 R0
SYMATTR SpiceLine Rser=2
SYMATTR Value 470p
SYMATTR InstName C5
SYMBOL res 816 96 R0
WINDOW 0 -7 41 Right 2
WINDOW 3 -2 74 Right 2
SYMATTR InstName R4
SYMATTR Value 1.5K
SYMBOL LT6110 928 368 R0
SYMATTR InstName U2
SYMBOL res 912 112 R270
WINDOW 0 32 56 VTop 2
WINDOW 3 0 56 VBottom 2
SYMATTR InstName R5
SYMATTR Value 25m
SYMBOL res 640 512 R0
SYMATTR InstName R6
SYMATTR Value 200K
SYMBOL cap -224 -64 R0
WINDOW 123 24 77 Left 2
SYMATTR Value 10µ
SYMATTR InstName C6
SYMATTR SpiceLine V=6.3 Irms=0 Rser=0.002 Lser=0 mfg="TDK" pn="C4532X5ROJ47@M" type="X5R"
SYMBOL res 1072 112 R270
WINDOW 0 32 56 VTop 2
WINDOW 3 0 56 VBottom 2
SYMATTR InstName R7
SYMATTR Value 140m
SYMBOL cap 1200 112 R0
WINDOW 123 24 77 Left 2
SYMATTR Value 220µ
SYMATTR InstName C7
SYMATTR SpiceLine V=6.3 Irms=0 Rser=0.002 Lser=0 mfg="TDK" pn="C4532X5ROJ47@M" type="X5R"
SYMBOL current 1344 112 R0
WINDOW 123 24 122 Left 2
WINDOW 39 24 101 Left 2
SYMATTR InstName I1
SYMATTR Value PULSE(1 5 1.5m 1u 1u 1m 2m)
SYMBOL res -112 80 R90
WINDOW 0 0 56 VBottom 2
WINDOW 3 32 56 VTop 2
SYMATTR InstName R8
SYMATTR Value 100K
TEXT 1176 504 Left 2 !.tran 5m startup
TEXT 936 24 Bottom 2 ;LT6110 - Cable/Wire Drop Compensator\nLT3976 - 40V, 5A, 2MHz Step-Down Switching Regulator with 3.3µA Quiescent Current\nBuck Regulator with Cable/Wire Voltage Drop Compensation\nInput: 5V to 40V, Output: 3.3V @ 5A
TEXT -112 656 Left 2 ;Note:\n  A smaller soft start capacitor (C1) is used to speed up simulation. Typical value should be .01µF.\n  If the simulation model is not found please update with the "Sync Release" command from the "Tools" menu.\n  It remains the customer's responsibility to verify proper and reliable operation in the actual application.\n  Component substitution and printed circuit board layout may significantly affect circuit performance or reliability.\n  Contact your local sales representative for assistance. This circuit is distributed to customers only for use with LTC parts.\n  Copyright © 2014 Linear Technology Inc. All rights reserved.
