Version 4
SHEET 1 2104 2044
WIRE -176 1360 -320 1360
WIRE -128 1360 -176 1360
WIRE -16 1360 -48 1360
WIRE 128 1360 -16 1360
WIRE -320 1376 -320 1360
WIRE -176 1376 -176 1360
WIRE -16 1376 -16 1360
WIRE 128 1376 128 1360
WIRE -320 1472 -320 1456
WIRE -176 1472 -176 1456
WIRE -16 1472 -16 1456
WIRE 128 1472 128 1456
WIRE -320 1600 -336 1600
WIRE -224 1600 -240 1600
WIRE 128 1600 32 1600
WIRE 128 1616 128 1600
WIRE 128 1712 128 1696
WIRE -96 1744 -96 1728
FLAG 128 1600 OUT
FLAG -336 1600 0
FLAG 128 1472 0
FLAG -320 1472 0
FLAG 128 1712 0
FLAG -320 1360 IN
FLAG -96 1744 0
SYMBOL PowerProducts\\LT6105 -96 1600 R0
SYMATTR InstName U1
SYMBOL res -144 1376 R270
WINDOW 0 32 56 VTop 2
WINDOW 3 0 56 VBottom 2
SYMATTR InstName R1
SYMATTR Value 4m
SYMBOL res -192 1360 R0
SYMATTR InstName R2
SYMATTR Value 100
SYMBOL res -32 1360 R0
SYMATTR InstName R3
SYMATTR Value 100
SYMBOL voltage -224 1600 R90
WINDOW 123 74 56 VTop 2
WINDOW 39 53 56 VTop 2
WINDOW 0 -32 56 VBottom 2
WINDOW 3 32 56 VTop 2
SYMATTR InstName V1
SYMATTR Value 5
SYMBOL voltage -320 1360 R0
WINDOW 123 24 138 Left 2
WINDOW 39 24 117 Left 2
SYMATTR InstName V2
SYMATTR Value 1
SYMBOL res 112 1600 R0
SYMATTR InstName R4
SYMATTR Value 10K
SYMBOL load2 128 1376 R0
WINDOW 123 25 126 Left 2
WINDOW 39 25 105 Left 2
SYMATTR InstName LOAD
SYMATTR Value PULSE(0 10 0 .05 .05 .05 .2 2)
TEXT -48 1312 Bottom 2 ;LT6105 - Precision, Rail-to-Rail Input Current Sense Amplifier\nUnidirectional Current Sense Amplifier for a 1V Supply\nInput: -0.3V to 44V     Rsense: 0.004 Ohm Shunt, 0A to 10A     Output: 0V to 4V (Gain of 100)
TEXT 160 1744 Left 2 !.tran .4 startup
TEXT -688 1760 Left 2 ;Note:\n  If the simulation model is not found please update with the "Sync Release" command from the "Tools" menu.\n  It remains the customer's responsibility to verify proper and reliable operation in the actual application.\n  Component substitution and printed circuit board layout may significantly affect circuit performance or reliability.\n  Contact your local sales representative for assistance. This circuit is distributed to customers only for use with LTC parts.\n  Copyright © 2013 Linear Technology Inc. All rights reserved.
