Version 4
SHEET 1 964 1116
WIRE 64 -336 -256 -336
WIRE 64 -320 64 -336
WIRE -64 -192 -96 -192
WIRE 256 -192 192 -192
WIRE 256 -176 256 -192
WIRE 256 -80 256 -96
WIRE -16 -48 -16 -64
WIRE 144 -48 144 -64
WIRE -96 48 -96 -192
WIRE -96 48 -608 48
WIRE -16 48 -16 32
WIRE -16 48 -96 48
WIRE 32 48 -16 48
WIRE 144 48 144 32
WIRE 144 48 112 48
WIRE 256 48 144 48
WIRE -608 64 -608 48
WIRE 256 64 256 48
WIRE -256 80 -256 -336
WIRE -256 80 -528 80
WIRE -256 96 -256 80
WIRE -608 160 -608 144
WIRE 256 160 256 144
WIRE -384 224 -480 224
WIRE -96 224 -96 48
WIRE -96 224 -128 224
WIRE -480 240 -480 224
WIRE -480 336 -480 320
WIRE -608 368 -608 352
WIRE -336 368 -336 352
WIRE -176 368 -176 352
WIRE -48 368 -48 352
WIRE -608 464 -608 448
WIRE -528 464 -528 80
WIRE -528 464 -608 464
WIRE -336 464 -336 448
WIRE -336 464 -528 464
WIRE -288 464 -336 464
WIRE -176 464 -176 448
WIRE -176 464 -208 464
WIRE -48 464 -48 448
WIRE -48 464 -176 464
FLAG -480 336 0
FLAG -608 160 0
FLAG -608 352 0
FLAG -48 352 0
FLAG 256 -80 0
FLAG 256 160 0
FLAG 256 -192 OUT+
FLAG -480 224 OUT-
FLAG -608 48 IN+
FLAG -608 464 IN-
SYMBOL LT6105 -256 224 R180
SYMATTR InstName U1
SYMBOL res -192 448 R90
WINDOW 0 0 56 VBottom 2
WINDOW 3 32 56 VTop 2
SYMATTR InstName R1
SYMATTR Value 35m
SYMBOL res -192 464 M180
WINDOW 0 36 76 Left 2
WINDOW 3 36 40 Left 2
SYMATTR InstName R2
SYMATTR Value 100
SYMBOL res -352 464 M180
WINDOW 0 36 76 Left 2
WINDOW 3 36 40 Left 2
SYMATTR InstName R3
SYMATTR Value 100
SYMBOL res -496 224 R0
SYMATTR InstName R4
SYMATTR Value 4.99K
SYMBOL voltage -608 48 R0
WINDOW 123 0 0 Left 2
WINDOW 39 0 0 Left 2
SYMATTR InstName V1
SYMATTR Value 15
SYMBOL voltage -608 352 R0
WINDOW 123 24 138 Left 2
WINDOW 39 24 117 Left 2
SYMATTR InstName V2
SYMATTR Value 15
SYMBOL current -48 368 R0
WINDOW 123 24 122 Left 2
WINDOW 39 24 101 Left 2
SYMATTR Value SINE(1 1 1K 1.5m 0 0 1)
SYMATTR InstName Iload-
SYMBOL LT6105 64 -192 M180
SYMATTR InstName U2
SYMBOL res 16 64 R270
WINDOW 0 32 56 VTop 2
WINDOW 3 0 56 VBottom 2
SYMATTR InstName R5
SYMATTR Value 35m
SYMBOL res -32 -64 R0
SYMATTR InstName R6
SYMATTR Value 100
SYMBOL res 128 -64 R0
SYMATTR InstName R7
SYMATTR Value 100
SYMBOL res 240 -192 R0
SYMATTR InstName R8
SYMATTR Value 4.99K
SYMBOL current 256 64 R0
WINDOW 123 24 122 Left 2
WINDOW 39 24 101 Left 2
SYMATTR Value SINE(1 1 1K 0 0 0 1)
SYMATTR InstName Iload+
TEXT 368 432 Left 2 !.tran 3m
TEXT 224 -24 Left 2 ;+V Current Monitor
TEXT 96 288 Right 2 ;-V Current Monitor
TEXT -696 504 Left 2 ;Note:\n  If the simulation model is not found please update with the "Sync Release" command from the "Tools" menu.\n  It remains the customer's responsibility to verify proper and reliable operation in the actual application.\n  Component substitution and printed circuit board layout may significantly affect circuit performance or reliability.\n  Contact your local sales representative for assistance. This circuit is distributed to customers only for use with LTC parts.\n  Copyright © 2013 Linear Technology Inc. All rights reserved.
TEXT -184 -344 Bottom 2 ;LT6105 - Precision, Rail-to-Rail Input Current Sense Amplifier\nCurrent Sense Monitor for +15V and -15V Supplies\nInputs: +15V & -15V     Outputs: 0-3.5V (0A to 2A)
