Version 4
SHEET 1 1480 2044
WIRE -288 1360 -672 1360
WIRE -176 1360 -288 1360
WIRE -128 1360 -176 1360
WIRE -16 1360 -48 1360
WIRE 64 1360 -16 1360
WIRE 128 1360 64 1360
WIRE -288 1376 -288 1360
WIRE -176 1376 -176 1360
WIRE -16 1376 -16 1360
WIRE 128 1376 128 1360
WIRE -672 1392 -672 1360
WIRE -288 1472 -288 1456
WIRE -176 1472 -176 1456
WIRE -16 1472 -16 1456
WIRE 128 1472 128 1456
WIRE -672 1504 -672 1472
WIRE -224 1600 -288 1600
WIRE 128 1600 32 1600
WIRE -288 1616 -288 1600
WIRE 128 1616 128 1600
WIRE -288 1712 -288 1696
WIRE 128 1712 128 1696
WIRE -96 1760 -96 1728
WIRE 64 1760 64 1360
WIRE 64 1760 -96 1760
FLAG 128 1600 OUT
FLAG -288 1712 0
FLAG -672 1504 0
FLAG 128 1472 0
FLAG 128 1712 0
FLAG -288 1472 0
FLAG 128 1360 IN
SYMBOL PowerProducts\\LT6105 -96 1600 R0
SYMATTR InstName U1
SYMBOL res -144 1376 R270
WINDOW 0 32 56 VTop 2
WINDOW 3 0 56 VBottom 2
SYMATTR InstName R1
SYMATTR Value 40m
SYMBOL res -192 1360 R0
SYMATTR InstName R2
SYMATTR Value 100
SYMBOL res -32 1360 R0
SYMATTR InstName R3
SYMATTR Value 100
SYMBOL voltage -288 1600 R0
WINDOW 123 0 0 Left 2
WINDOW 39 0 0 Left 2
SYMATTR InstName V1
SYMATTR Value 5
SYMBOL voltage 128 1472 M180
WINDOW 0 24 96 Left 2
WINDOW 3 24 16 Left 2
WINDOW 123 24 -26 Left 2
WINDOW 39 24 -5 Left 2
SYMATTR InstName V2
SYMATTR Value 15
SYMBOL res 112 1600 R0
SYMATTR InstName R4
SYMATTR Value 10K
SYMBOL res -304 1360 R0
SYMATTR InstName R5
SYMATTR Value 10K
SYMBOL load2 -672 1472 M180
WINDOW 0 25 84 Left 2
WINDOW 3 17 -16 Left 2
WINDOW 123 17 -58 Left 2
WINDOW 39 17 -37 Left 2
SYMATTR InstName Iload
SYMATTR Value PULSE(0 1 0 .05 .05 .1 .25)
TEXT -224 1304 Bottom 2 ;LT6105 - Precision, Rail-to-Rail Input Current Sense Amplifier\nUnidirectional Current Sense Amplifier for Negative Supplies\nInput: .3V to -44V     Rsense: .O4ohm Shunt with 1A     Output: 0V to 4V (Gain of 100)
TEXT 88 1752 Left 2 !.tran 1.5 startup
TEXT -824 1760 Left 2 ;Note:\n  If the simulation model is not found please update with the "Sync Release" command from the "Tools" menu.\n  It remains the customer's responsibility to verify proper and reliable operation in the actual application.\n  Component substitution and printed circuit board layout may significantly affect circuit performance or reliability.\n  Contact your local sales representative for assistance. This circuit is distributed to customers only for use with LTC parts.\n  Copyright © 2012 Linear Technology Inc. All rights reserved.
