Version 4
SHEET 1 1008 1236
WIRE 192 32 -320 32
WIRE -96 112 -96 96
WIRE 432 128 432 112
WIRE -320 176 -320 32
WIRE -320 176 -656 176
WIRE -208 176 -320 176
WIRE 32 192 0 192
WIRE 160 192 112 192
WIRE 192 192 192 32
WIRE 320 192 192 192
WIRE -656 208 -656 176
WIRE -320 208 -320 176
WIRE 592 208 528 208
WIRE 704 208 672 208
WIRE 736 208 704 208
WIRE 704 240 704 208
WIRE -656 304 -656 288
WIRE -176 304 -176 288
WIRE -96 304 -96 288
WIRE -320 320 -320 288
WIRE 432 320 432 304
WIRE 352 336 352 304
WIRE 352 336 224 336
WIRE 704 352 704 320
WIRE -96 416 -96 400
WIRE 432 432 432 416
WIRE -320 480 -656 480
WIRE -208 480 -320 480
WIRE 32 496 0 496
WIRE 160 496 160 192
WIRE 160 496 112 496
WIRE 320 496 160 496
WIRE -896 512 -896 496
WIRE -784 512 -784 496
WIRE -656 512 -656 480
WIRE -320 512 -320 480
WIRE 560 512 528 512
WIRE 592 512 560 512
WIRE 752 512 672 512
WIRE -896 608 -896 592
WIRE -784 608 -784 592
WIRE -656 608 -656 592
WIRE -176 608 -176 592
WIRE -96 608 -96 592
WIRE -320 624 -320 592
WIRE 432 624 432 608
WIRE 224 640 224 336
WIRE 352 640 352 608
WIRE 352 640 224 640
WIRE -96 720 -96 704
WIRE 432 736 432 720
WIRE -320 784 -656 784
WIRE -240 784 -320 784
WIRE -208 784 -240 784
WIRE 32 800 0 800
WIRE 160 800 160 496
WIRE 160 800 112 800
WIRE 320 800 192 800
WIRE -656 816 -656 784
WIRE -320 816 -320 784
WIRE 592 816 528 816
WIRE 704 816 672 816
WIRE 736 816 704 816
WIRE 704 848 704 816
WIRE -656 912 -656 896
WIRE -176 912 -176 896
WIRE -96 912 -96 896
WIRE -320 928 -320 896
WIRE 432 928 432 912
WIRE 704 944 704 928
WIRE -240 976 -240 784
WIRE 192 976 192 800
WIRE 192 976 -240 976
WIRE 224 976 224 640
WIRE 352 976 352 912
WIRE 352 976 224 976
WIRE 560 976 560 512
WIRE 560 976 352 976
FLAG -896 608 0
FLAG -96 96 +V
FLAG -896 496 +V
FLAG -96 304 -V
FLAG -784 608 0
FLAG -784 496 -V
FLAG -176 304 0
FLAG -656 304 0
FLAG -320 320 0
FLAG -96 400 +V
FLAG -96 608 -V
FLAG -176 608 0
FLAG -320 624 0
FLAG -96 704 +V
FLAG -96 912 -V
FLAG -176 912 0
FLAG -320 928 0
FLAG -656 608 0
FLAG -656 912 0
FLAG 432 112 +V
FLAG 432 320 -V
FLAG 432 416 +V
FLAG 432 624 -V
FLAG 432 720 +V
FLAG 432 928 -V
FLAG 704 352 0
FLAG 704 944 0
FLAG -656 176 R
FLAG -656 480 G
FLAG -656 784 B
FLAG 736 208 Pr
FLAG 752 512 Y
FLAG 736 816 Pb
SYMBOL voltage -896 496 R0
WINDOW 123 0 0 Left 2
WINDOW 39 0 0 Left 2
SYMATTR InstName V1
SYMATTR Value 3.3
SYMBOL voltage -784 496 R0
WINDOW 123 0 0 Left 2
WINDOW 39 0 0 Left 2
SYMATTR InstName V2
SYMATTR Value -3.3
SYMBOL LT6550 -96 192 R0
SYMATTR InstName U1
SYMBOL voltage -656 192 R0
WINDOW 123 0 0 Left 2
WINDOW 39 0 0 Left 2
SYMATTR InstName V3
SYMATTR Value PULSE(0 .5 2u 2n 2n 2u)
SYMBOL res -336 192 R0
SYMATTR InstName R1
SYMATTR Value 75
SYMBOL res 16 208 R270
WINDOW 0 32 56 VTop 2
WINDOW 3 0 56 VBottom 2
SYMATTR InstName R2
SYMATTR Value 1070
SYMBOL LT6550 -96 496 R0
SYMATTR InstName U2
SYMBOL res -336 496 R0
SYMATTR InstName R3
SYMATTR Value 75
SYMBOL res 16 512 R270
WINDOW 0 32 56 VTop 2
WINDOW 3 0 56 VBottom 2
SYMATTR InstName R4
SYMATTR Value 549
SYMBOL LT6550 -96 800 R0
SYMATTR InstName U3
SYMBOL res -336 800 R0
SYMATTR InstName R5
SYMATTR Value 75
SYMBOL res 16 816 R270
WINDOW 0 32 56 VTop 2
WINDOW 3 0 56 VBottom 2
SYMATTR InstName R6
SYMATTR Value 2940
SYMBOL voltage -656 496 R0
WINDOW 123 0 0 Left 2
WINDOW 39 0 0 Left 2
SYMATTR InstName V4
SYMATTR Value PULSE(0 1 4u 2n 2n 2u)
SYMBOL voltage -656 800 R0
WINDOW 123 0 0 Left 2
WINDOW 39 0 0 Left 2
SYMATTR InstName V5
SYMATTR Value PULSE(0 .75 2u 2n 2n 6u)
SYMBOL LT6550 432 208 R0
SYMATTR InstName U4
SYMBOL res 576 224 R270
WINDOW 0 32 56 VTop 2
WINDOW 3 0 56 VBottom 2
SYMATTR InstName R7
SYMATTR Value 105
SYMBOL LT6550 432 512 R0
SYMATTR InstName U5
SYMBOL res 576 528 R270
WINDOW 0 32 56 VTop 2
WINDOW 3 0 56 VBottom 2
SYMATTR InstName R8
SYMATTR Value 75
SYMBOL LT6550 432 816 R0
SYMATTR InstName U6
SYMBOL res 576 832 R270
WINDOW 0 32 56 VTop 2
WINDOW 3 0 56 VBottom 2
SYMATTR InstName R9
SYMATTR Value 133
SYMBOL res 688 224 R0
SYMATTR InstName R10
SYMATTR Value 261
SYMBOL res 688 832 R0
SYMATTR InstName R12
SYMATTR Value 174
TEXT 600 1000 Left 2 !.tran 10u
TEXT -48 24 Bottom 2 ;LT6550 - 3.3V Triple Video Amplifiers\nRGB to YPbPr Component-Video Conversion
TEXT -648 984 Left 2 ;Note:\n  If the simulation model is not found please update with the "Sync Release" command from the "Tools" menu.\n  It remains the customer's responsibility to verify proper and reliable operation in the actual application.\n  Component substitution and printed circuit board layout may significantly affect circuit performance or reliability.\n  Contact your local sales representative for assistance. This circuit is distributed to customers only for use with LTC parts.\n  Copyright © 2014 Linear Technology Inc. All rights reserved.
