Version 4
SHEET 1 1980 904
WIRE 192 96 -224 96
WIRE 240 96 192 96
WIRE 368 96 320 96
WIRE 480 96 368 96
WIRE 656 96 560 96
WIRE -224 112 -224 96
WIRE 192 112 192 96
WIRE 544 192 512 192
WIRE 656 192 656 96
WIRE 656 192 624 192
WIRE -224 208 -224 192
WIRE 192 208 192 176
WIRE 512 256 512 192
WIRE 368 304 368 96
WIRE 432 304 368 304
WIRE 192 320 192 304
WIRE 368 320 368 304
WIRE 656 320 656 192
WIRE 656 320 592 320
WIRE 672 320 656 320
WIRE 192 416 192 400
WIRE 368 416 368 400
WIRE 512 464 512 432
FLAG 192 416 0
FLAG 512 464 0
FLAG -224 208 0
FLAG -224 96 IN
FLAG 368 416 0
FLAG 672 320 OUT
FLAG 192 304 +V
FLAG 512 192 +V
FLAG 192 208 0
SYMBOL voltage 192 304 R0
WINDOW 3 26 96 Left 2
SYMATTR Value 5
SYMATTR InstName V1
SYMBOL res 528 208 R270
WINDOW 0 32 56 VTop 2
WINDOW 3 0 56 VBottom 2
SYMATTR InstName R1
SYMATTR Value 10K
SYMBOL voltage -224 96 R0
WINDOW 123 24 138 Left 2
WINDOW 39 24 117 Left 2
SYMATTR InstName V3
SYMATTR Value PULSE(20 0 0.1 0.4 0.4 0.4 1.6)
SYMBOL res 224 112 R270
WINDOW 0 32 56 VTop 2
WINDOW 3 0 56 VBottom 2
SYMATTR InstName R3
SYMATTR Value 88.5K
SYMBOL res 352 304 R0
SYMATTR InstName R4
SYMATTR Value 2K
SYMBOL LT6703-3 512 320 R0
SYMATTR InstName U1
SYMBOL res 576 80 R90
WINDOW 0 0 56 VBottom 2
WINDOW 3 32 56 VTop 2
SYMATTR InstName R2
SYMATTR Value 220K
SYMBOL cap 176 112 R0
SYMATTR InstName C1
SYMATTR Value .1µ
TEXT 216 40 Bottom 2 ;LT6703-3 µPower, Low Voltage Comparator with 400mV Reference\nµPower Supply Voltage Monitor with 2V Hysteresis\nTrippoints: 18.25V Low to High, 16V High to Low
TEXT 680 440 Left 2 !.tran 1.5 startup
TEXT -368 480 Left 2 ;Note:\n  LT6703-3 (non-inverting input version) has a internal 6.5mV of hysteresis. \n  Using an external positive feedback the hysteresis can be increased to 2V.\n  If the simulation model is not found please update with the "Sync Release" command from the "Tools" menu.\n  It remains the customer's responsibility to verify proper and reliable operation in the actual application.\n  Component substitution and printed circuit board layout may significantly affect circuit performance or reliability.\n  Contact your local sales representative for assistance. This circuit is distributed to customers only for use with LTC parts.\n  Copyright © 2015 Linear Technology Inc. All rights reserved.
