Version 4
SHEET 1 1400 680
WIRE 32 -32 -64 -32
WIRE 240 -32 32 -32
WIRE 416 -32 240 -32
WIRE 576 -32 464 -32
WIRE 704 -32 640 -32
WIRE 800 -32 704 -32
WIRE -64 -16 -64 -32
WIRE 240 -16 240 -32
WIRE 416 -16 416 -32
WIRE 464 -16 464 -32
WIRE 800 -16 800 -32
WIRE 704 0 704 -32
WIRE 240 64 240 48
WIRE -64 80 -64 64
WIRE 464 80 464 64
WIRE 704 80 704 64
WIRE 800 80 800 64
WIRE 32 144 32 -32
WIRE 128 144 32 144
WIRE 416 144 416 64
WIRE 416 144 352 144
WIRE 32 176 32 144
WIRE 416 176 416 144
WIRE 32 272 32 256
WIRE 128 272 32 272
WIRE 416 272 416 256
WIRE 416 272 352 272
WIRE 32 288 32 272
WIRE 240 336 240 320
WIRE 32 384 32 368
FLAG 240 336 0
FLAG -64 80 0
FLAG 32 384 0
FLAG -64 -32 IN
FLAG 464 80 0
FLAG 704 80 0
FLAG 800 80 0
FLAG 800 -32 OUT
FLAG 240 64 0
SYMBOL PowerProducts\\LT8300 240 208 R0
SYMATTR InstName U1
SYMBOL voltage -64 -32 R0
WINDOW 123 0 0 Left 2
WINDOW 39 0 0 Left 2
SYMATTR InstName V1
SYMATTR Value 48
SYMBOL res 16 160 R0
SYMATTR InstName R1
SYMATTR Value 806K
SYMBOL res 16 272 R0
SYMATTR InstName R2
SYMATTR Value 53.6K
SYMBOL ind2 400 -32 R0
WINDOW 0 -1 46 Right 2
WINDOW 3 0 76 Right 2
SYMATTR InstName L1
SYMATTR Value 400µ
SYMATTR Type ind
SYMATTR SpiceLine Rser=980m Rpar=100k Cpar=10p
SYMBOL ind2 480 80 R180
WINDOW 0 -3 64 Right 2
WINDOW 3 1 34 Right 2
SYMATTR InstName L2
SYMATTR Value 7.91µ
SYMATTR Type ind
SYMATTR SpiceLine Rser=55m Cpar=1p
SYMBOL res 400 160 R0
SYMATTR InstName R3
SYMATTR Value 365K
SYMBOL schottky 576 -16 R270
WINDOW 0 32 32 VTop 2
WINDOW 3 0 32 VBottom 2
SYMATTR InstName D1
SYMATTR Value PMEG3010BEA
SYMATTR Description Diode
SYMATTR Type diode
SYMBOL cap 688 0 R0
SYMATTR InstName C1
SYMATTR Value 100µ
SYMATTR SpiceLine V=6.3 Irms=0 Rser=0.003 Lser=0
SYMBOL cap 224 -16 R0
WINDOW 3 26 52 Left 2
SYMATTR Value 2.2µ
SYMATTR InstName C2
SYMATTR SpiceLine V=6.3 Irms=0 Rser=0.003 Lser=0 mfg="TDK" pn="C2012X5ROJ475M" type="X5R"
SYMBOL res 784 -32 R0
SYMATTR InstName R4
SYMATTR Value 20
TEXT 440 -64 Bottom 2 !K1 L1 L2 0.998
TEXT 560 312 Left 2 !.tran 4m startup
TEXT 352 -112 Bottom 2 ;LT8300 - 100Vin µPower Isolated Flyback Converter with 150V/260mA Switch\n100V µPower Isolated Flyback Converter\nInput: 22V to 75V       Output: 5V @ 0.25A
TEXT -272 400 Left 2 ;Note:\n  If the simulation model is not found please update with the "Sync Release" command from the "Tools" menu.\n  It remains the customer's responsibility to verify proper and reliable operation in the actual application.\n  Component substitution and printed circuit board layout may significantly affect circuit performance or reliability.\n  Contact your local sales representative for assistance. This circuit is distributed to customers only for use with LTC parts.\n  Copyright © 2012 Linear Technology Inc. All rights reserved.
TEXT 440 -32 Bottom 2 ;750312366
TEXT 440 136 Left 2 ;Nps = 7.11:1
