Version 4
SHEET 1 2040 680
WIRE -176 -1856 -512 -1856
WIRE -48 -1856 -176 -1856
WIRE -32 -1856 -48 -1856
WIRE 80 -1856 48 -1856
WIRE 96 -1856 80 -1856
WIRE 208 -1856 176 -1856
WIRE 448 -1856 208 -1856
WIRE -176 -1792 -176 -1856
WIRE -48 -1792 -48 -1856
WIRE 80 -1792 80 -1856
WIRE 208 -1792 208 -1856
WIRE -784 -1712 -896 -1712
WIRE -704 -1712 -784 -1712
WIRE -656 -1712 -704 -1712
WIRE -512 -1712 -512 -1856
WIRE -512 -1712 -560 -1712
WIRE -400 -1712 -512 -1712
WIRE -288 -1712 -336 -1712
WIRE 336 -1712 320 -1712
WIRE 448 -1712 448 -1856
WIRE 448 -1712 400 -1712
WIRE 624 -1712 448 -1712
WIRE 768 -1712 720 -1712
WIRE 848 -1712 768 -1712
WIRE -896 -1696 -896 -1712
WIRE -784 -1696 -784 -1712
WIRE -512 -1696 -512 -1712
WIRE 448 -1696 448 -1712
WIRE 768 -1696 768 -1712
WIRE -288 -1616 -464 -1616
WIRE 400 -1616 320 -1616
WIRE 768 -1616 768 -1632
WIRE -896 -1600 -896 -1616
WIRE -784 -1600 -784 -1632
WIRE -512 -1584 -512 -1600
WIRE 448 -1584 448 -1600
WIRE -576 -1536 -576 -1664
WIRE -288 -1536 -576 -1536
WIRE 640 -1536 640 -1664
WIRE 640 -1536 320 -1536
WIRE -704 -1456 -704 -1712
WIRE -288 -1456 -704 -1456
WIRE 688 -1456 320 -1456
WIRE 848 -1456 848 -1712
WIRE 848 -1456 688 -1456
WIRE 688 -1440 688 -1456
WIRE -704 -1360 -704 -1376
WIRE -288 -1360 -704 -1360
WIRE 688 -1360 320 -1360
WIRE -704 -1344 -704 -1360
WIRE -528 -1264 -544 -1264
WIRE -448 -1264 -464 -1264
WIRE -288 -1264 -448 -1264
WIRE 608 -1264 320 -1264
WIRE 688 -1264 688 -1280
WIRE -704 -1248 -704 -1264
WIRE 608 -1232 608 -1264
WIRE 848 -1232 848 -1456
WIRE 848 -1232 608 -1232
WIRE 848 -1216 848 -1232
WIRE -448 -1168 -448 -1264
WIRE -432 -1168 -448 -1168
WIRE -288 -1168 -352 -1168
WIRE 608 -1168 320 -1168
WIRE 608 -1120 608 -1168
WIRE 848 -1120 848 -1136
WIRE 848 -1120 608 -1120
WIRE 848 -1088 848 -1120
WIRE -384 -1072 -400 -1072
WIRE -304 -1072 -320 -1072
WIRE -288 -1072 -304 -1072
WIRE 800 -1072 320 -1072
WIRE -304 -976 -304 -1072
WIRE -288 -976 -304 -976
WIRE 368 -976 320 -976
WIRE 848 -976 848 -992
WIRE -720 -880 -736 -880
WIRE -288 -880 -640 -880
WIRE 336 -880 320 -880
WIRE 848 -880 848 -912
WIRE -288 -800 -304 -800
WIRE 336 -800 320 -800
WIRE -176 -688 -176 -704
WIRE 16 -688 16 -704
WIRE 208 -688 208 -704
WIRE -176 -592 -176 -624
WIRE 208 -592 208 -608
WIRE -448 -512 -448 -1168
WIRE 368 -512 368 -976
WIRE 368 -512 -448 -512
FLAG 336 -800 0
FLAG -176 -592 0
FLAG 208 -592 0
FLAG 16 -544 0
FLAG -896 -1600 0
FLAG -704 -1248 0
FLAG 848 -880 0
FLAG 768 -1616 0
FLAG -896 -1712 IN
FLAG -512 -1584 0
FLAG 448 -1584 0
FLAG -544 -1264 0
FLAG -400 -1072 0
FLAG 688 -1264 0
FLAG -736 -880 0
FLAG 336 -880 0
FLAG -304 -800 0
FLAG 848 -1456 OUT
FLAG -784 -1600 0
SYMBOL cap -192 -688 R0
WINDOW 0 43 18 Left 2
WINDOW 3 43 44 Left 2
SYMATTR InstName C1
SYMATTR Value 22n
SYMBOL cap 0 -608 R0
WINDOW 3 38 51 Left 2
WINDOW 39 27 59 Left 2
WINDOW 0 40 25 Left 2
SYMATTR Value 10n
SYMATTR InstName C2
SYMBOL voltage -896 -1712 R0
WINDOW 123 0 0 Left 2
WINDOW 39 0 0 Left 2
SYMATTR InstName V1
SYMATTR Value 12
SYMBOL res -48 -1840 R270
WINDOW 0 32 56 VTop 2
WINDOW 3 0 56 VBottom 2
SYMATTR InstName R1
SYMATTR Value 4m
SYMBOL cap -400 -1696 R270
WINDOW 0 32 32 VTop 2
WINDOW 3 0 32 VBottom 2
SYMATTR InstName C3
SYMATTR Value 0.1µ
SYMBOL nmos -656 -1664 R270
WINDOW 0 75 40 VTop 2
WINDOW 3 52 40 VTop 2
SYMATTR InstName Q1
SYMATTR Value BSZ100N06LS3
SYMBOL nmos -464 -1696 M0
WINDOW 0 -2 24 Right 2
WINDOW 3 -3 59 Right 2
SYMATTR InstName Q2
SYMATTR Value BSZ100N06LS3
SYMBOL ind 80 -1840 R270
WINDOW 0 32 56 VTop 2
WINDOW 3 5 56 VBottom 2
SYMATTR InstName L1
SYMATTR Value 4.8µ
SYMATTR SpiceLine Rser=2m
SYMBOL res 832 -1232 R0
WINDOW 0 38 49 Left 2
WINDOW 3 36 71 Left 2
SYMATTR InstName R2
SYMATTR Value 50m
SYMBOL nmos 720 -1664 M270
WINDOW 0 73 49 VTop 2
WINDOW 3 52 43 VTop 2
SYMATTR InstName Q3
SYMATTR Value BSC034N03LS
SYMBOL nmos 400 -1696 R0
WINDOW 0 62 18 Left 2
WINDOW 3 63 60 Left 2
SYMATTR InstName Q4
SYMATTR Value BSC034N03LS
SYMBOL cap 336 -1728 M90
WINDOW 0 0 32 VBottom 2
WINDOW 3 32 32 VTop 2
SYMATTR InstName C4
SYMATTR Value 0.1µ
SYMBOL res 192 -704 R0
SYMATTR InstName R3
SYMATTR Value 100K
SYMBOL res 672 -1456 R0
SYMATTR InstName R4
SYMATTR Value 1MEG
SYMBOL cap -464 -1280 R90
WINDOW 0 0 32 VBottom 2
WINDOW 3 32 32 VTop 2
SYMATTR InstName C5
SYMATTR Value 4.7µ
SYMBOL cap -320 -1088 R90
WINDOW 0 0 32 VBottom 2
WINDOW 3 32 32 VTop 2
SYMATTR InstName C6
SYMATTR Value 0.47µ
SYMBOL res 672 -1376 R0
SYMATTR InstName R5
SYMATTR Value 34.8K
SYMBOL res -720 -1360 R0
SYMATTR InstName R6
SYMATTR Value 221K
SYMBOL res -720 -1472 R0
SYMATTR InstName R7
SYMATTR Value 499K
SYMBOL LED 832 -976 R0
WINDOW 123 24 85 Left 2
SYMATTR Value2 N=7
SYMATTR Value LUW-W5AP
SYMATTR InstName LED
SYMATTR Description Diode
SYMATTR Type diode
SYMBOL cap 752 -1696 R0
WINDOW 123 29 64 Left 2
WINDOW 3 36 35 Left 2
SYMATTR Value2 x2
SYMATTR Value 10µ
SYMATTR InstName C7
SYMBOL pmos 800 -992 M180
WINDOW 0 60 64 Left 2
WINDOW 3 61 29 Left 2
SYMATTR InstName M1
SYMATTR Value Si7113DN
SYMBOL res -336 -1184 R90
WINDOW 0 0 56 VBottom 2
WINDOW 3 32 56 VTop 2
SYMATTR InstName R8
SYMATTR Value 100K
SYMBOL res 0 -704 R0
WINDOW 0 38 52 Left 2
SYMATTR InstName R9
SYMATTR Value 2.2K
SYMBOL voltage -624 -880 R90
WINDOW 123 74 56 VTop 2
WINDOW 39 53 56 VTop 2
WINDOW 0 -32 56 VBottom 2
WINDOW 3 32 56 VTop 2
SYMATTR InstName V2
SYMATTR Value PWL(0 2 4m 2 4.1m 0.8 5.1m 0.8 5.2m 2)
SYMBOL PowerProducts\\LT8391 16 -1248 R0
SYMATTR InstName U2
SYMBOL cap -800 -1696 R0
WINDOW 123 24 77 Left 2
SYMATTR Value 10µ
SYMATTR InstName C8
TEXT 56 -1912 Bottom 2 ;LT8391 - 60V Synchronous 4-Switch Buck-Boost LED Controller\n98% Efficient 50W Buck-Boost LED Driver\nInput: 4V to 60V       Output: 25V LED @ 2A, Fsw = 400kHz
TEXT 392 -712 Left 2 !.tran 6m startup
TEXT -600 -504 Left 2 ;Note:\n  If the simulation model is not found please update with the "Sync Release" command from the "Tools" menu.\n  It remains the customer's responsibility to verify proper and reliable operation in the actual application.\n  Component substitution and printed circuit board layout may significantly affect circuit performance or reliability.\n  Contact your local sales representative for assistance. This circuit is distributed to customers only for use with LTC parts.\n  Copyright © 2017 Linear Technology Inc. All rights reserved.
