Version 4
SHEET 1 1400 680
WIRE -48 16 -144 16
WIRE 368 16 -48 16
WIRE 512 16 416 16
WIRE 640 16 576 16
WIRE 736 16 640 16
WIRE -144 32 -144 16
WIRE 368 32 368 16
WIRE 416 32 416 16
WIRE 640 32 640 16
WIRE 736 32 736 16
WIRE -144 128 -144 112
WIRE 416 128 416 112
WIRE 640 128 640 96
WIRE 736 128 736 112
WIRE -48 144 -48 16
WIRE 64 144 -48 144
WIRE 368 144 368 112
WIRE 368 144 288 144
WIRE -48 160 -48 144
WIRE 368 176 368 144
WIRE -48 272 -48 240
WIRE 64 272 -48 272
WIRE 368 272 368 256
WIRE 368 272 288 272
WIRE -48 288 -48 272
WIRE 176 336 176 320
WIRE -48 384 -48 368
FLAG 176 336 0
FLAG -144 128 0
FLAG -144 16 IN
FLAG 416 128 0
FLAG 640 128 0
FLAG 736 128 0
FLAG 736 16 OUT
FLAG -48 384 0
SYMBOL voltage -144 16 R0
WINDOW 123 0 0 Left 2
WINDOW 39 0 0 Left 2
SYMATTR InstName V1
SYMATTR Value 10
SYMBOL ind2 352 16 R0
WINDOW 0 0 39 Right 2
WINDOW 3 0 77 Right 2
SYMATTR InstName L1
SYMATTR Value 40µ
SYMATTR Type ind
SYMATTR SpiceLine Rser=500m Cpar=1p
SYMBOL ind2 432 128 R180
WINDOW 0 -4 72 Right 2
WINDOW 3 -1 33 Right 2
SYMATTR InstName L2
SYMATTR Value 4.444µ
SYMATTR Type ind
SYMATTR SpiceLine Rser=20m Cpar=0
SYMBOL res 352 160 R0
SYMATTR InstName R3
SYMATTR Value 154K
SYMBOL schottky 512 32 R270
WINDOW 0 32 32 VTop 2
WINDOW 3 0 32 VBottom 2
SYMATTR InstName D1
SYMATTR Value MBRS360
SYMATTR Description Diode
SYMATTR Type diode
SYMBOL polcap 624 32 R0
WINDOW 3 24 56 Left 2
SYMATTR Value 22µ
SYMATTR InstName C1
SYMATTR SpiceLine V=10 Irms=2.2 Rser=0.025 Lser=0
SYMATTR Description Capacitor
SYMATTR Type cap
SYMBOL res 720 16 R0
SYMATTR InstName Rload
SYMATTR Value 7.14
SYMBOL LT8301 176 208 R0
SYMATTR InstName U1
SYMBOL res -64 144 R0
SYMATTR InstName R2
SYMATTR Value 1Meg
SYMBOL res -64 272 R0
SYMATTR InstName R4
SYMATTR Value 210K
TEXT 392 8 Bottom 2 !K1 L1 L2 .998
TEXT 512 312 Left 2 !.tran 6m startup
TEXT 320 -48 Bottom 2 ;LT8301 - 42Vin µPower No-Opto Isolated Flyback Converter with 65V/1.2A Switch\nµPower Isolated Flyback Converter\nInput: 10V to 32V       Output: 5V @ 0.7A, Fsw = 190kHz
TEXT -256 400 Left 2 ;Note:\n  If the simulation model is not found please update with the "Sync Release" command from the "Tools" menu.\n  It remains the customer's responsibility to verify proper and reliable operation in the actual application.\n  Component substitution and printed circuit board layout may significantly affect circuit performance or reliability.\n  Contact your local sales representative for assistance. This circuit is distributed to customers only for use with LTC parts.\n  Copyright © 2014 Linear Technology Inc. All rights reserved.
TEXT 464 184 Left 2 ;750313974\nWurth Electronics\nNps = 3:1\nLpri = 40µH
