Version 4
SHEET 1 1212 680
WIRE 64 16 -32 16
WIRE 400 16 64 16
WIRE 544 16 448 16
WIRE 672 16 608 16
WIRE 768 16 672 16
WIRE -32 32 -32 16
WIRE 400 32 400 16
WIRE 448 32 448 16
WIRE 672 32 672 16
WIRE 768 32 768 16
WIRE -32 128 -32 112
WIRE 448 128 448 112
WIRE 672 128 672 96
WIRE 768 128 768 112
WIRE 64 144 64 16
WIRE 96 144 64 144
WIRE 400 144 400 112
WIRE 400 144 320 144
WIRE 400 176 400 144
WIRE 64 272 64 144
WIRE 96 272 64 272
WIRE 400 272 400 256
WIRE 400 272 320 272
WIRE 208 336 208 320
FLAG 208 336 0
FLAG -32 128 0
FLAG -32 16 IN
FLAG 448 128 0
FLAG 672 128 0
FLAG 768 128 0
FLAG 768 16 OUT
SYMBOL voltage -32 16 R0
WINDOW 123 0 0 Left 2
WINDOW 39 0 0 Left 2
SYMATTR InstName V1
SYMATTR Value 48
SYMBOL ind2 384 16 R0
WINDOW 0 1 37 Right 2
WINDOW 3 0 77 Right 2
SYMATTR InstName L1
SYMATTR Value 150µ
SYMATTR Type ind
SYMATTR SpiceLine Rser=500m Cpar=1p
SYMBOL ind2 464 128 R180
WINDOW 0 -4 74 Right 2
WINDOW 3 0 35 Right 2
SYMATTR InstName L2
SYMATTR Value 4.2µ
SYMATTR Type ind
SYMATTR SpiceLine Rser=20m Cpar=.2p
SYMBOL res 384 160 R0
SYMATTR InstName R1
SYMATTR Value 316K
SYMBOL schottky 544 32 R270
WINDOW 0 32 32 VTop 2
WINDOW 3 0 32 VBottom 2
SYMATTR InstName D1
SYMATTR Value MBRS340
SYMATTR Description Diode
SYMATTR Type diode
SYMBOL cap 656 32 R0
SYMATTR InstName C1
SYMATTR Value 47µ
SYMBOL res 752 16 R0
SYMATTR InstName Rload
SYMATTR Value 8
SYMBOL PowerProducts\\LT8303 208 208 R0
SYMATTR InstName U1
TEXT 424 16 Bottom 2 !K1 L1 L2 1
TEXT 560 216 Left 2 !.tran 2.5m startup
TEXT 392 -56 Bottom 2 ;LT8303 - 100Vin µPower No-Opto Isolated Flyback Converter with 150V/0.45A Switch\nµPower No-Opto Isolated Flyback Converter\nInput: 36V to 72V       Output: 5V @ 0.65A to 0.84A
TEXT -176 352 Left 2 ;Note:\n  If the simulation model is not found please update with the "Sync Release" command from the "Tools" menu.\n  It remains the customer's responsibility to verify proper and reliable operation in the actual application.\n  Component substitution and printed circuit board layout may significantly affect circuit performance or reliability.\n  Contact your local sales representative for assistance. This circuit is distributed to customers only for use with LTC parts.\n  Copyright © 2017 Linear Technology Inc. All rights reserved.
