Version 4
SHEET 1 1440 696
WIRE -64 32 -160 32
WIRE 16 32 -64 32
WIRE 128 32 16 32
WIRE 176 32 128 32
WIRE 288 32 256 32
WIRE 336 32 288 32
WIRE 448 32 400 32
WIRE 560 32 448 32
WIRE 672 32 560 32
WIRE 768 32 672 32
WIRE -160 48 -160 32
WIRE 672 48 672 32
WIRE 768 48 768 32
WIRE -64 64 -64 32
WIRE 448 80 448 32
WIRE 560 80 560 32
WIRE 128 96 128 32
WIRE 288 96 288 32
WIRE -160 144 -160 128
WIRE -64 144 -64 128
WIRE 672 144 672 112
WIRE 768 144 768 128
WIRE 16 208 16 32
WIRE 48 208 16 208
WIRE 448 208 448 160
WIRE 448 208 368 208
WIRE 560 208 560 144
WIRE 560 208 448 208
WIRE 448 224 448 208
WIRE 448 320 448 304
WIRE 128 336 128 320
WIRE 288 336 288 320
WIRE 128 416 128 400
FLAG 128 416 0
FLAG 288 336 0
FLAG -160 144 0
FLAG 448 320 0
FLAG 768 144 0
FLAG 672 144 0
FLAG -160 32 IN
FLAG 768 32 OUT
FLAG -64 144 0
SYMBOL cap 112 336 R0
SYMATTR InstName C1
SYMATTR Value 1µ
SYMBOL voltage -160 32 R0
SYMATTR InstName V1
SYMATTR Value 5
SYMBOL ind 160 48 R270
WINDOW 0 32 56 VTop 2
WINDOW 3 5 56 VBottom 2
SYMATTR InstName L1
SYMATTR Value 1.2µ
SYMATTR SpiceLine Rser=24m
SYMBOL res 432 64 R0
SYMATTR InstName R1
SYMATTR Value 1Meg
SYMBOL res 432 208 R0
SYMATTR InstName R2
SYMATTR Value 154K
SYMBOL cap 544 80 R0
SYMATTR InstName C2
SYMATTR Value 4.7p
SYMBOL cap 656 48 R0
SYMATTR InstName C3
SYMATTR Value 22µ
SYMATTR SpiceLine Rser=10m
SYMBOL res 752 32 R0
SYMATTR InstName Rload
SYMATTR Value 44
SYMBOL schottky 336 48 R270
WINDOW 0 32 32 VTop 2
WINDOW 3 0 32 VBottom 2
SYMATTR InstName D1
SYMATTR Value DFLS220L
SYMATTR Description Diode
SYMATTR Type diode
SYMBOL LT8335 208 208 R0
SYMATTR InstName U1
SYMBOL cap -80 64 R0
SYMATTR InstName C4
SYMATTR Value 4.7µ
SYMATTR SpiceLine Rser=10m
TEXT 552 320 Left 2 !.tran 1m startup
TEXT 280 -24 Bottom 2 ;LT8335 - Low Iq Boost/SEPIC/Inverting DC/DC Converter with 2A, 28V Switch\n12V Boost Converter\nInput: 3V to 10V     Output: 12V @ 275mA with 3Vin, Fsw = 2MHz
TEXT -336 440 Left 2 ;Note:\n  If the simulation model is not found please update with the "Sync Release" command from the "Tools" menu.\n  It remains the customer's responsibility to verify proper and reliable operation in the actual application.\n  Component substitution and printed circuit board layout may significantly affect circuit performance or reliability.\n  Contact your local sales representative for assistance. This circuit is distributed to customers only for use with LTC parts.\n  Copyright © 2016 Linear Technology Inc. All rights reserved.
