Version 4
SHEET 1 1672 780
WIRE 192 80 96 80
WIRE 400 80 272 80
WIRE 448 80 400 80
WIRE 560 80 512 80
WIRE 656 80 560 80
WIRE 656 96 656 80
WIRE 560 112 560 80
WIRE 96 176 96 80
WIRE 96 176 80 176
WIRE 128 176 96 176
WIRE 400 176 400 80
WIRE 400 176 352 176
WIRE 400 192 400 176
WIRE 560 192 560 176
WIRE 656 192 656 176
WIRE 96 272 96 176
WIRE 128 272 96 272
WIRE 400 272 352 272
WIRE 128 368 64 368
WIRE 400 368 352 368
WIRE 64 384 64 368
WIRE -112 416 -112 400
WIRE 400 416 400 368
WIRE -16 432 -16 400
WIRE 64 464 64 448
WIRE 128 464 64 464
WIRE -112 528 -112 496
WIRE -16 528 -16 496
WIRE -16 528 -112 528
WIRE 64 528 64 464
WIRE 64 528 -16 528
WIRE 400 528 400 496
WIRE 400 528 64 528
FLAG 560 192 0
FLAG 656 192 0
FLAG 656 80 OUT
FLAG -112 400 0
FLAG 80 176 0
FLAG -16 400 0
SYMBOL voltage -112 512 M180
WINDOW 123 24 -26 Left 2
WINDOW 39 24 -5 Left 2
WINDOW 0 24 96 Left 2
WINDOW 3 24 16 Left 2
SYMATTR InstName Vin
SYMATTR Value -42
SYMBOL res 384 176 R0
SYMATTR InstName R4
SYMATTR Value 121K
SYMBOL schottky 448 96 R270
WINDOW 0 32 32 VTop 2
WINDOW 3 0 32 VBottom 2
SYMATTR InstName D1
SYMATTR Value MBRS360
SYMATTR Description Diode
SYMATTR Type diode
SYMBOL cap 544 112 R0
SYMATTR InstName C5
SYMATTR Value 47µ
SYMATTR SpiceLine V=6.3 Rser=0.003
SYMBOL res 640 80 R0
SYMATTR InstName Rload
SYMATTR Value 9.23
SYMBOL cap 48 384 R0
SYMATTR InstName C3
SYMATTR Value 1µ
SYMBOL res 384 400 R0
SYMATTR InstName R6
SYMATTR Value 10K
SYMBOL LT8302 240 320 R0
SYMATTR InstName U1
SYMBOL ind 288 96 M270
WINDOW 0 32 56 VTop 2
WINDOW 3 5 56 VBottom 2
SYMATTR InstName L1
SYMATTR Value 12µ
SYMBOL cap -32 496 M180
WINDOW 0 24 56 Left 2
WINDOW 3 24 8 Left 2
SYMATTR InstName C1
SYMATTR Value 10µ
TEXT 552 504 Left 2 !.tran 8m startup
TEXT 248 16 Bottom 2 ;LT8302 - 42Vin µPower No-Opto Isolated Flyback Converter with 65V/3.6A Switch\nUsed to make a Negative to Positive Buck-Boost Converter\nInput: -4V to -42V       Output: 12V @ 1.3A
TEXT -264 536 Left 2 ;Note:\n  If the simulation model is not found please update with the "Sync Release" command from the "Tools" menu.\n  It remains the customer's responsibility to verify proper and reliable operation in the actual application.\n  Component substitution and printed circuit board layout may significantly affect circuit performance or reliability.\n  Contact your local sales representative for assistance. This circuit is distributed to customers only for use with LTC parts.\n  Copyright © 2014 Linear Technology Inc. All rights reserved.
TEXT 616 344 Bottom 2 ;12V @ 0.45A (Vin=-5V)\n12V @ 0.8A (Vin=-12V)\n12V @ 1.1A (Vin=-24V)\n12V @ 1.3A (Vin=-42V)
