Version 4
SHEET 1 1880 832
WIRE -2864 -2032 -2960 -2032
WIRE -2768 -2032 -2864 -2032
WIRE -2384 -2032 -2768 -2032
WIRE -1744 -2032 -2384 -2032
WIRE -1616 -2032 -1696 -2032
WIRE -1504 -2032 -1552 -2032
WIRE -1456 -2032 -1504 -2032
WIRE -1344 -2032 -1376 -2032
WIRE -1184 -2032 -1344 -2032
WIRE -928 -2032 -1184 -2032
WIRE -832 -2032 -928 -2032
WIRE -2960 -2016 -2960 -2032
WIRE -2864 -2016 -2864 -2032
WIRE -2768 -2016 -2768 -2032
WIRE -928 -2016 -928 -2032
WIRE -832 -2016 -832 -2032
WIRE -1744 -2000 -1744 -2032
WIRE -1696 -2000 -1696 -2032
WIRE -1504 -2000 -1504 -2032
WIRE -2384 -1968 -2384 -2032
WIRE -1184 -1952 -1184 -2032
WIRE -2960 -1920 -2960 -1936
WIRE -2864 -1920 -2864 -1952
WIRE -2768 -1920 -2768 -1936
WIRE -2544 -1920 -2768 -1920
WIRE -928 -1920 -928 -1952
WIRE -832 -1920 -832 -1936
WIRE -2768 -1904 -2768 -1920
WIRE -2544 -1904 -2544 -1920
WIRE -2016 -1904 -2224 -1904
WIRE -2000 -1904 -2016 -1904
WIRE -1920 -1904 -1936 -1904
WIRE -1696 -1904 -1696 -1920
WIRE -1504 -1904 -1504 -1936
WIRE -1184 -1856 -1184 -1872
WIRE -832 -1856 -1184 -1856
WIRE -1184 -1840 -1184 -1856
WIRE -2768 -1808 -2768 -1824
WIRE -2544 -1808 -2768 -1808
WIRE -2128 -1808 -2224 -1808
WIRE -2016 -1808 -2016 -1904
WIRE -2016 -1808 -2048 -1808
WIRE -1744 -1808 -1744 -1920
WIRE -1504 -1808 -1744 -1808
WIRE -2768 -1792 -2768 -1808
WIRE -1744 -1792 -1744 -1808
WIRE -1504 -1760 -1504 -1808
WIRE -1344 -1744 -1344 -2032
WIRE -1184 -1744 -1184 -1760
WIRE -2640 -1712 -2656 -1712
WIRE -2544 -1712 -2576 -1712
WIRE -1792 -1712 -2224 -1712
WIRE -2768 -1696 -2768 -1712
WIRE -1344 -1648 -1344 -1664
WIRE -1184 -1648 -1344 -1648
WIRE -1168 -1648 -1184 -1648
WIRE -1088 -1648 -1104 -1648
WIRE -1344 -1632 -1344 -1648
WIRE -2640 -1616 -2656 -1616
WIRE -2544 -1616 -2560 -1616
WIRE -1904 -1616 -2224 -1616
WIRE -1856 -1616 -1904 -1616
WIRE -1744 -1616 -1744 -1696
WIRE -1744 -1616 -1776 -1616
WIRE -1504 -1616 -1504 -1696
WIRE -1504 -1616 -1744 -1616
WIRE -1904 -1600 -1904 -1616
WIRE -1744 -1600 -1744 -1616
WIRE -1568 -1536 -1632 -1536
WIRE -1344 -1536 -1344 -1552
WIRE -1344 -1536 -1376 -1536
WIRE -1280 -1536 -1344 -1536
WIRE -1184 -1536 -1184 -1648
WIRE -1184 -1536 -1216 -1536
WIRE -1072 -1536 -1152 -1536
WIRE -976 -1536 -1008 -1536
WIRE -832 -1536 -832 -1856
WIRE -832 -1536 -896 -1536
WIRE -2640 -1520 -2656 -1520
WIRE -2544 -1520 -2576 -1520
WIRE -2176 -1520 -2224 -1520
WIRE -2128 -1520 -2176 -1520
WIRE -2016 -1520 -2016 -1808
WIRE -2016 -1520 -2048 -1520
WIRE -2176 -1504 -2176 -1520
WIRE -2016 -1504 -2016 -1520
WIRE -1904 -1504 -1904 -1536
WIRE -1744 -1504 -1744 -1520
WIRE -1568 -1472 -1600 -1472
WIRE -1152 -1440 -1152 -1536
WIRE -1152 -1440 -1376 -1440
WIRE -1120 -1440 -1152 -1440
WIRE -832 -1440 -832 -1536
WIRE -832 -1440 -864 -1440
WIRE -2640 -1424 -2656 -1424
WIRE -2560 -1424 -2576 -1424
WIRE -2544 -1424 -2560 -1424
WIRE -2176 -1408 -2176 -1424
WIRE -2016 -1408 -2016 -1424
WIRE -1632 -1408 -1632 -1536
WIRE -1632 -1408 -2016 -1408
WIRE -2016 -1392 -2016 -1408
WIRE -2384 -1344 -2384 -1360
WIRE -1280 -1312 -1312 -1312
WIRE -1184 -1312 -1184 -1536
WIRE -1184 -1312 -1216 -1312
WIRE -1120 -1312 -1184 -1312
WIRE -848 -1312 -864 -1312
WIRE -2560 -1296 -2560 -1424
WIRE -2016 -1296 -2016 -1312
WIRE -2016 -1296 -2560 -1296
WIRE -2016 -1280 -2016 -1296
WIRE -848 -1248 -864 -1248
WIRE -2016 -1184 -2016 -1200
FLAG -2960 -1920 0
FLAG -2384 -1344 0
FLAG -2656 -1712 0
FLAG -2768 -1696 0
FLAG -1920 -1904 0
FLAG -2656 -1520 0
FLAG -2656 -1616 0
FLAG -1744 -1504 0
FLAG -1696 -1904 0
FLAG -1504 -1904 0
FLAG -928 -1920 0
FLAG -2176 -1408 0
FLAG -1184 -1744 0
FLAG -1600 -1472 0
FLAG -2016 -1184 0
FLAG -832 -1920 0
FLAG -2864 -1920 0
FLAG -848 -1248 0
FLAG -848 -1312 0
FLAG -2656 -1424 0
FLAG -2960 -2032 IN
FLAG -1088 -1648 0
FLAG -832 -2032 OUT
FLAG -1312 -1312 0
FLAG -1904 -1504 0
SYMBOL LT8310 -2384 -1664 R0
SYMATTR InstName U1
SYMBOL voltage -2960 -2032 R0
WINDOW 123 0 0 Left 2
WINDOW 39 0 0 Left 2
SYMATTR InstName V1
SYMATTR Value 53
SYMBOL cap -2576 -1728 R90
WINDOW 0 0 32 VBottom 2
WINDOW 3 32 32 VTop 2
SYMATTR InstName C1
SYMATTR Value 5600p
SYMBOL cap -2000 -1888 R270
WINDOW 0 32 32 VTop 2
WINDOW 3 0 32 VBottom 2
SYMATTR InstName C2
SYMATTR Value 4.7µ
SYMBOL res -2032 -1824 R90
WINDOW 0 0 56 VBottom 2
WINDOW 3 32 56 VTop 2
SYMATTR InstName R1
SYMATTR Value 105K
SYMBOL res -2544 -1632 R90
WINDOW 0 0 56 VBottom 2
WINDOW 3 32 56 VTop 2
SYMATTR InstName R2
SYMATTR Value 56.2K
SYMBOL cap -2576 -1536 R90
WINDOW 0 0 32 VBottom 2
WINDOW 3 32 32 VTop 2
SYMATTR InstName C3
SYMATTR Value .1µ
SYMBOL nmos -1792 -1792 R0
WINDOW 3 59 71 Left 2
SYMATTR Value BSC320N20NS3
SYMATTR InstName Q1
SYMBOL res -1760 -1616 R0
SYMATTR InstName R3
SYMATTR Value 0.012
SYMBOL ind2 -1760 -1904 M180
WINDOW 0 -7 70 Right 2
WINDOW 3 -4 35 Right 2
SYMATTR InstName L1
SYMATTR Value 300µ
SYMATTR Type ind
SYMATTR SpiceLine Rser=23m Cpar=1n
SYMBOL ind2 -1680 -1904 R180
WINDOW 0 -7 71 Right 2
WINDOW 3 -5 38 Right 2
SYMATTR InstName L2
SYMATTR Value 1875µ
SYMATTR Type ind
SYMATTR SpiceLine Rser=135m
SYMBOL diode -1520 -1936 M180
WINDOW 0 24 64 Left 2
WINDOW 3 24 0 Left 2
SYMATTR InstName D1
SYMATTR Value MUR460
SYMBOL diode -1616 -2048 M90
WINDOW 0 0 32 VBottom 2
WINDOW 3 32 32 VTop 2
SYMATTR InstName D2
SYMATTR Value MUR460
SYMBOL ind -1472 -2016 R270
WINDOW 0 32 56 VTop 2
WINDOW 3 5 56 VBottom 2
SYMATTR InstName L3
SYMATTR Value 220µ
SYMATTR SpiceLine Rser=60m
SYMBOL cap -944 -2016 R0
SYMATTR InstName C4
SYMATTR Value 47µ
SYMATTR SpiceLine Rser=10m
SYMBOL cap -1520 -1760 R0
SYMATTR InstName C5
SYMATTR Value 180p
SYMBOL LT1431 -992 -1344 R0
SYMATTR InstName U2
SYMBOL res -2192 -1520 R0
SYMATTR InstName R4
SYMATTR Value 10K
SYMBOL res -2032 -1536 R90
WINDOW 0 0 56 VBottom 2
WINDOW 3 32 56 VTop 2
SYMATTR InstName R5
SYMATTR Value 100K
SYMBOL res -1200 -1968 R0
SYMATTR InstName R6
SYMATTR Value 95.3K
SYMBOL res -1200 -1856 R0
SYMATTR InstName R7
SYMATTR Value 4.64K
SYMBOL cap -1008 -1552 R90
WINDOW 0 0 32 VBottom 2
WINDOW 3 32 32 VTop 2
SYMATTR InstName C6
SYMATTR Value .01µ
SYMBOL res -880 -1552 R90
WINDOW 0 0 56 VBottom 2
WINDOW 3 32 56 VTop 2
SYMATTR InstName R8
SYMATTR Value 28K
SYMBOL res -1360 -1648 R0
SYMATTR InstName R9
SYMATTR Value 3.3K
SYMBOL cap -1216 -1552 R90
WINDOW 0 0 32 VBottom 2
WINDOW 3 32 32 VTop 2
SYMATTR InstName C7
SYMATTR Value 3300p
SYMBOL res -2032 -1520 R0
SYMATTR InstName R10
SYMATTR Value 3K
SYMBOL res -2032 -1408 R0
SYMATTR InstName R11
SYMATTR Value 61.9K
SYMBOL res -2032 -1296 R0
SYMATTR InstName R12
SYMATTR Value 20K
SYMBOL res -2784 -2032 R0
SYMATTR InstName R13
SYMATTR Value 155.3K
SYMBOL res -2784 -1920 R0
SYMATTR InstName R14
SYMATTR Value 2.53K
SYMBOL res -2784 -1808 R0
WINDOW 3 38 68 Left 2
SYMATTR Value 3.25K
SYMATTR InstName R15
SYMBOL MOC207 -1472 -1472 M0
SYMATTR InstName U3
SYMBOL cap -2576 -1440 R90
WINDOW 0 0 32 VBottom 2
WINDOW 3 32 32 VTop 2
SYMATTR InstName C8
SYMATTR Value 1000p
SYMBOL cap -2880 -2016 R0
SYMATTR InstName C9
SYMATTR Value 4.7µ
SYMBOL res -1360 -1760 R0
WINDOW 3 36 68 Left 2
SYMATTR Value 7K
SYMATTR InstName R16
SYMBOL cap -1104 -1664 R90
WINDOW 0 0 32 VBottom 2
WINDOW 3 32 32 VTop 2
SYMATTR InstName C10
SYMATTR Value .22µ
SYMBOL zener -1280 -1296 R270
WINDOW 0 36 32 VTop 2
WINDOW 3 -4 32 VBottom 2
SYMATTR InstName D4
SYMATTR Value EDZV11B
SYMBOL res -1760 -1632 R90
WINDOW 0 0 56 VBottom 2
WINDOW 3 32 56 VTop 2
SYMATTR InstName R17
SYMATTR Value 50
SYMBOL cap -1920 -1600 R0
SYMATTR InstName C11
SYMATTR Value 22n
SYMBOL res -848 -2032 R0
SYMATTR InstName Rload
SYMATTR Value 32
TEXT -1720 -2032 Bottom 2 !K1 L1 L2 1
TEXT -1016 -1128 Left 2 !.tran 10m startup
TEXT -1816 -2088 Bottom 2 ;LT8310 - 100 Vin Forward Converter Controller\nLT1431 - Programmable Reference\n92W Isolated Nonsynchronous Forward Converter with Opto Feedback\nInput: 43V to 53V       Output: 54V @ 1.7A
TEXT -2480 -1160 Left 2 ;Note:\n  If the simulation model is not found please update with the "Sync Release" command from the "Tools" menu.\n  It remains the customer's responsibility to verify proper and reliable operation in the actual application.\n  Component substitution and printed circuit board layout may significantly affect circuit performance or reliability.\n  Contact your local sales representative for assistance. This circuit is distributed to customers only for use with LTC parts.\n  Copyright © 2017 Linear Technology Inc. All rights reserved.
