Version 4
SHEET 1 1880 832
WIRE -2848 -2064 -2944 -2064
WIRE -2768 -2064 -2848 -2064
WIRE -2384 -2064 -2768 -2064
WIRE -1856 -2064 -2384 -2064
WIRE -1712 -2064 -1808 -2064
WIRE -1584 -2064 -1648 -2064
WIRE -1536 -2064 -1584 -2064
WIRE -1408 -2064 -1456 -2064
WIRE -1344 -2064 -1408 -2064
WIRE -1248 -2064 -1344 -2064
WIRE -2944 -2048 -2944 -2064
WIRE -1344 -2048 -1344 -2064
WIRE -1248 -2048 -1248 -2064
WIRE -2848 -2032 -2848 -2064
WIRE -2768 -2032 -2768 -2064
WIRE -1856 -2032 -1856 -2064
WIRE -1808 -2032 -1808 -2064
WIRE -1584 -2032 -1584 -2064
WIRE -2384 -1968 -2384 -2064
WIRE -2944 -1952 -2944 -1968
WIRE -2848 -1952 -2848 -1968
WIRE -1344 -1952 -1344 -1984
WIRE -1248 -1952 -1248 -1968
WIRE -1808 -1936 -1808 -1952
WIRE -1584 -1936 -1584 -1968
WIRE -2768 -1920 -2768 -1952
WIRE -2544 -1920 -2768 -1920
WIRE -2768 -1904 -2768 -1920
WIRE -2544 -1904 -2544 -1920
WIRE -2176 -1904 -2224 -1904
WIRE -2064 -1904 -2176 -1904
WIRE -1984 -1904 -2064 -1904
WIRE -2064 -1888 -2064 -1904
WIRE -1856 -1824 -1856 -1952
WIRE -1648 -1824 -1856 -1824
WIRE -2768 -1808 -2768 -1824
WIRE -2544 -1808 -2768 -1808
WIRE -2176 -1808 -2176 -1824
WIRE -2176 -1808 -2224 -1808
WIRE -2064 -1808 -2064 -1824
WIRE -1408 -1808 -1408 -2064
WIRE -800 -1808 -1408 -1808
WIRE -2768 -1792 -2768 -1808
WIRE -1856 -1792 -1856 -1824
WIRE -1648 -1760 -1648 -1824
WIRE -1408 -1760 -1408 -1808
WIRE -2624 -1712 -2656 -1712
WIRE -2544 -1712 -2560 -1712
WIRE -1904 -1712 -2224 -1712
WIRE -2768 -1696 -2768 -1712
WIRE -1408 -1648 -1408 -1680
WIRE -1248 -1648 -1408 -1648
WIRE -1232 -1648 -1248 -1648
WIRE -1152 -1648 -1168 -1648
WIRE -1408 -1632 -1408 -1648
WIRE -2640 -1616 -2656 -1616
WIRE -2544 -1616 -2560 -1616
WIRE -1856 -1616 -1856 -1696
WIRE -1856 -1616 -2224 -1616
WIRE -1648 -1616 -1648 -1696
WIRE -1648 -1616 -1856 -1616
WIRE -1856 -1600 -1856 -1616
WIRE -1664 -1536 -1744 -1536
WIRE -1408 -1536 -1408 -1552
WIRE -1408 -1536 -1472 -1536
WIRE -1344 -1536 -1408 -1536
WIRE -1248 -1536 -1248 -1648
WIRE -1248 -1536 -1280 -1536
WIRE -1088 -1536 -1168 -1536
WIRE -1008 -1536 -1024 -1536
WIRE -848 -1536 -928 -1536
WIRE -800 -1536 -800 -1808
WIRE -2624 -1520 -2656 -1520
WIRE -2544 -1520 -2560 -1520
WIRE -2176 -1520 -2224 -1520
WIRE -2112 -1520 -2176 -1520
WIRE -1984 -1520 -1984 -1904
WIRE -1984 -1520 -2032 -1520
WIRE -2176 -1504 -2176 -1520
WIRE -1984 -1504 -1984 -1520
WIRE -1856 -1504 -1856 -1520
WIRE -1664 -1472 -1696 -1472
WIRE -1168 -1440 -1168 -1536
WIRE -1168 -1440 -1472 -1440
WIRE -1136 -1440 -1168 -1440
WIRE -848 -1440 -848 -1536
WIRE -848 -1440 -880 -1440
WIRE -800 -1440 -800 -1456
WIRE -800 -1440 -848 -1440
WIRE -2544 -1424 -2576 -1424
WIRE -800 -1424 -800 -1440
WIRE -2176 -1408 -2176 -1424
WIRE -1984 -1408 -1984 -1424
WIRE -1744 -1408 -1744 -1536
WIRE -1744 -1408 -1984 -1408
WIRE -1984 -1376 -1984 -1408
WIRE -2384 -1344 -2384 -1360
WIRE -800 -1328 -800 -1344
WIRE -1248 -1312 -1248 -1536
WIRE -1136 -1312 -1248 -1312
WIRE -864 -1312 -880 -1312
WIRE -2576 -1280 -2576 -1424
WIRE -2096 -1280 -2576 -1280
WIRE -1984 -1280 -1984 -1296
WIRE -1984 -1280 -2096 -1280
WIRE -1248 -1280 -1248 -1312
WIRE -2096 -1264 -2096 -1280
WIRE -1984 -1264 -1984 -1280
WIRE -864 -1248 -880 -1248
WIRE -1248 -1184 -1248 -1216
WIRE -2096 -1168 -2096 -1200
WIRE -1984 -1168 -1984 -1184
FLAG -2944 -1952 0
FLAG -2384 -1344 0
FLAG -2656 -1712 0
FLAG -2768 -1696 0
FLAG -2064 -1808 0
FLAG -2656 -1520 0
FLAG -2656 -1616 0
FLAG -1856 -1504 0
FLAG -1808 -1936 0
FLAG -1584 -1936 0
FLAG -1344 -1952 0
FLAG -2176 -1408 0
FLAG -800 -1328 0
FLAG -1248 -2064 OUT
FLAG -1696 -1472 0
FLAG -1984 -1168 0
FLAG -1248 -1952 0
FLAG -864 -1248 0
FLAG -864 -1312 0
FLAG -2096 -1168 0
FLAG -2944 -2064 IN
FLAG -1248 -1184 0
FLAG -1152 -1648 0
FLAG -2848 -1952 0
SYMBOL LT8310 -2384 -1664 R0
SYMATTR InstName U1
SYMBOL voltage -2944 -2064 R0
WINDOW 123 0 0 Left 2
WINDOW 39 0 0 Left 2
SYMATTR InstName V1
SYMATTR Value 48
SYMBOL cap -2560 -1728 R90
WINDOW 0 0 32 VBottom 2
WINDOW 3 32 32 VTop 2
SYMATTR InstName C1
SYMATTR Value 5.6n
SYMBOL cap -2080 -1888 R0
SYMATTR InstName C2
SYMATTR Value 4.7µ
SYMBOL res -2192 -1920 R0
SYMATTR InstName R1
SYMATTR Value 118K
SYMBOL res -2544 -1632 R90
WINDOW 0 0 56 VBottom 2
WINDOW 3 32 56 VTop 2
SYMATTR InstName R2
SYMATTR Value 40.2K
SYMBOL cap -2560 -1536 R90
WINDOW 0 0 32 VBottom 2
WINDOW 3 32 32 VTop 2
SYMATTR InstName C3
SYMATTR Value 100n
SYMBOL nmos -1904 -1792 R0
WINDOW 3 59 71 Left 2
SYMATTR Value BSC320N20NS3
SYMATTR InstName Q1
SYMBOL res -1872 -1616 R0
SYMATTR InstName R3
SYMATTR Value 0.025
SYMBOL ind2 -1872 -1936 M180
WINDOW 0 -7 70 Right 2
WINDOW 3 -4 35 Right 2
SYMATTR InstName L1
SYMATTR Value 300µ
SYMATTR Type ind
SYMATTR SpiceLine Rser=36m
SYMBOL ind2 -1792 -1936 R180
WINDOW 0 -7 71 Right 2
WINDOW 3 -5 38 Right 2
SYMATTR InstName L2
SYMATTR Value 90µ
SYMATTR Type ind
SYMATTR SpiceLine Rser=15m
SYMBOL schottky -1600 -1968 M180
WINDOW 0 24 64 Left 2
WINDOW 3 24 0 Left 2
SYMATTR InstName D1
SYMATTR Value MBR20100CT
SYMATTR Description Diode
SYMATTR Type diode
SYMBOL schottky -1712 -2080 M90
WINDOW 0 0 32 VBottom 2
WINDOW 3 32 32 VTop 2
SYMATTR InstName D2
SYMATTR Value MBR20100CT
SYMATTR Description Diode
SYMATTR Type diode
SYMBOL ind -1552 -2048 R270
WINDOW 0 32 56 VTop 2
WINDOW 3 5 56 VBottom 2
SYMATTR InstName L3
SYMATTR Value 22µ
SYMATTR SpiceLine Rser=16m
SYMBOL cap -1360 -2048 R0
SYMATTR InstName C4
SYMATTR Value 100µ
SYMATTR SpiceLine Rser=10m
SYMBOL cap -1664 -1760 R0
SYMATTR InstName C5
SYMATTR Value 390p
SYMBOL LT1431 -1008 -1344 R0
SYMATTR InstName U2
SYMBOL res -2192 -1520 R0
SYMATTR InstName R4
SYMATTR Value 10K
SYMBOL res -2016 -1536 R90
WINDOW 0 0 56 VBottom 2
WINDOW 3 32 56 VTop 2
SYMATTR InstName R5
SYMATTR Value 100K
SYMBOL res -816 -1552 R0
SYMATTR InstName R6
SYMATTR Value 94.5K
SYMBOL res -816 -1440 R0
SYMATTR InstName R7
SYMATTR Value 24.9K
SYMBOL cap -1024 -1552 R90
WINDOW 0 0 32 VBottom 2
WINDOW 3 32 32 VTop 2
SYMATTR InstName C6
SYMATTR Value 1.2n
SYMBOL res -912 -1552 R90
WINDOW 0 0 56 VBottom 2
WINDOW 3 32 56 VTop 2
SYMATTR InstName R8
SYMATTR Value 100K
SYMBOL res -1424 -1648 R0
SYMATTR InstName R9
SYMATTR Value 3.3K
SYMBOL cap -1280 -1552 R90
WINDOW 0 0 32 VBottom 2
WINDOW 3 32 32 VTop 2
SYMATTR InstName C7
SYMATTR Value 3.3n
SYMBOL res -2000 -1392 R0
SYMATTR InstName R11
SYMATTR Value 61.9K
SYMBOL res -2000 -1280 R0
SYMATTR InstName R12
SYMATTR Value 20K
SYMBOL res -2784 -2048 R0
SYMATTR InstName R13
SYMATTR Value 86.6K
SYMBOL res -2784 -1920 R0
SYMATTR InstName R14
SYMATTR Value 1.78K
SYMBOL res -2784 -1808 R0
WINDOW 3 38 68 Left 2
SYMATTR Value 1.43K
SYMATTR InstName R15
SYMBOL MOC207 -1568 -1472 M0
SYMATTR InstName U3
SYMBOL res -1264 -2064 R0
SYMATTR InstName Rload
SYMATTR Value 2
SYMBOL cap -2112 -1264 R0
SYMATTR InstName C8
SYMATTR Value 100p
SYMBOL res -1424 -1776 R0
SYMATTR InstName R16
SYMATTR Value 200
SYMBOL zener -1264 -1216 M180
WINDOW 0 24 64 Left 2
WINDOW 3 24 0 Left 2
SYMATTR InstName D3
SYMATTR Value EDZV11B
SYMBOL res -2000 -1520 R0
SYMATTR InstName R17
SYMATTR Value 3k
SYMBOL cap -1168 -1664 R90
WINDOW 0 0 32 VBottom 2
WINDOW 3 32 32 VTop 2
SYMATTR InstName C9
SYMATTR Value 1µ
SYMBOL cap -2864 -2032 R0
SYMATTR InstName C10
SYMATTR Value 1µ
TEXT -1832 -2064 Bottom 2 !K1 L1 L2 1
TEXT -1096 -1104 Left 2 !.tran 8m startup
TEXT -1952 -2112 Bottom 2 ;LT8310 - 100 Vin Forward Converter Controller\nLT1431 - Programmable Reference\n72 Watt Isolated Nonsynchronous Forward Converter with Opto Feedback\nInput: 36V to 72V       Output: 12V @ 6A
TEXT -2504 -1136 Left 2 ;Note:\n  If the simulation model is not found please update with the "Sync Release" command from the "Tools" menu.\n  It remains the customer's responsibility to verify proper and reliable operation in the actual application.\n  Component substitution and printed circuit board layout may significantly affect circuit performance or reliability.\n  Contact your local sales representative for assistance. This circuit is distributed to customers only for use with LTC parts.\n  Copyright © 2014 Linear Technology Inc. All rights reserved.
