Version 4
SHEET 1 2380 704
WIRE -48 -32 -144 -32
WIRE 32 -32 -48 -32
WIRE 144 -32 32 -32
WIRE 192 -32 144 -32
WIRE 304 -32 272 -32
WIRE 416 -32 304 -32
WIRE 576 -32 480 -32
WIRE 704 -32 576 -32
WIRE 800 -32 704 -32
WIRE -144 -16 -144 -32
WIRE -48 -16 -48 -32
WIRE 576 -16 576 -32
WIRE 704 -16 704 -32
WIRE 800 -16 800 -32
WIRE 144 16 144 -32
WIRE 304 16 304 -32
WIRE -144 80 -144 64
WIRE -48 80 -48 48
WIRE 32 80 32 -32
WIRE 64 80 32 80
WIRE 400 80 384 80
WIRE 480 80 464 80
WIRE 576 80 576 64
WIRE 576 80 528 80
WIRE 704 80 704 48
WIRE 800 80 800 64
WIRE 576 96 576 80
WIRE 64 176 48 176
WIRE 528 176 528 80
WIRE 528 176 384 176
WIRE 576 192 576 176
WIRE -32 272 -48 272
WIRE 64 272 48 272
WIRE 400 272 384 272
WIRE 496 272 480 272
WIRE 576 272 560 272
WIRE -16 368 -48 368
WIRE 64 368 48 368
WIRE 400 368 384 368
WIRE 224 448 224 432
FLAG -144 80 0
FLAG 800 80 0
FLAG 704 80 0
FLAG 400 368 0
FLAG 224 448 0
FLAG -48 272 0
FLAG -48 368 0
FLAG 576 272 0
FLAG 576 192 0
FLAG 800 -32 OUT
FLAG -144 -32 IN
FLAG 480 80 0
FLAG 48 176 0
FLAG -48 80 0
SYMBOL voltage -144 -32 R0
SYMATTR InstName V1
SYMATTR Value 12
SYMBOL ind 176 -16 R270
WINDOW 0 32 56 VTop 2
WINDOW 3 5 56 VBottom 2
SYMATTR InstName L1
SYMATTR Value 2.2µ
SYMATTR SpiceLine Rser=.17
SYMBOL schottky 416 -16 R270
WINDOW 0 32 32 VTop 2
WINDOW 3 0 32 VBottom 2
SYMATTR InstName D1
SYMATTR Value MBRS340
SYMATTR Description Diode
SYMATTR Type diode
SYMBOL cap 688 -16 R0
SYMATTR InstName C1
SYMATTR Value 10µ
SYMBOL res 560 80 R0
SYMATTR InstName R1
SYMATTR Value 71.5K
SYMBOL cap 560 256 R90
WINDOW 0 0 32 VBottom 2
WINDOW 3 32 32 VTop 2
WINDOW 123 53 32 VTop 2
SYMATTR InstName C2
SYMATTR Value 2200p
SYMBOL cap 48 352 R90
WINDOW 0 0 32 VBottom 2
WINDOW 3 32 32 VTop 2
SYMATTR InstName C3
SYMATTR Value 2000p
SYMBOL res 64 256 R90
WINDOW 0 0 56 VBottom 2
WINDOW 3 32 56 VTop 2
SYMATTR InstName R2
SYMATTR Value 20K
SYMBOL cap 400 64 M90
WINDOW 0 0 32 VBottom 2
WINDOW 3 32 32 VTop 2
SYMATTR InstName C4
SYMATTR Value 1µ
SYMBOL res 560 -32 R0
SYMATTR InstName R3
SYMATTR Value 1Meg
SYMBOL res 496 256 R90
WINDOW 0 0 56 VBottom 2
WINDOW 3 32 56 VTop 2
SYMATTR InstName R4
SYMATTR Value 22K
SYMBOL PowerProducts\\LT8364 224 224 R0
SYMATTR InstName U1
SYMBOL res 784 -32 R0
SYMATTR InstName Rload
SYMATTR Value 18.5
SYMBOL cap -64 -16 R0
SYMATTR InstName C5
SYMATTR Value 10µ
TEXT 504 416 Left 2 !.tran 1m startup
TEXT -296 464 Left 2 ;Note:\n  A smaller SS capacitor is being used to reduce simulation time. See datasheet for typical values.\n  If the simulation model is not found please update with the "Sync Release" command from the "Tools" menu.\n  It remains the customer's responsibility to verify proper and reliable operation in the actual application.\n  Component substitution and printed circuit board layout may significantly affect circuit performance or reliability.\n  Contact your local sales representative for assistance. This circuit is distributed to customers only for use with LTC parts.\n  Copyright © 2018 Analog Devices Inc. All rights reserved.
TEXT 344 -80 Bottom 2 ;LT8364 - Low Iq Boost/SEPIC/Inverting DC/DC Converter with 4A, 60V Switch\n24V Boost Converter\nInput: 5V to 20V     Output: 24V @ 1.3A (with 12Vin), Fsw = 2MHz
