Version 4
SHEET 1 1480 704
WIRE -160 -32 -256 -32
WIRE -64 -32 -160 -32
WIRE 128 -32 -64 -32
WIRE 176 -32 128 -32
WIRE 288 -32 256 -32
WIRE 368 -32 288 -32
WIRE 512 -32 432 -32
WIRE 608 -32 512 -32
WIRE 720 -32 672 -32
WIRE 768 -32 720 -32
WIRE 864 -32 768 -32
WIRE 960 -32 864 -32
WIRE -256 -16 -256 -32
WIRE -160 -16 -160 -32
WIRE -64 -16 -64 -32
WIRE 512 -16 512 -32
WIRE 864 -16 864 -32
WIRE 960 -16 960 -32
WIRE 128 16 128 -32
WIRE 288 16 288 -32
WIRE -256 80 -256 64
WIRE -160 80 -160 48
WIRE -64 80 -64 64
WIRE 48 80 -64 80
WIRE 384 80 368 80
WIRE 464 80 448 80
WIRE 512 80 512 64
WIRE 768 80 768 -32
WIRE 864 80 864 48
WIRE 960 80 960 64
WIRE -64 96 -64 80
WIRE 48 176 32 176
WIRE 768 176 768 160
WIRE 768 176 368 176
WIRE -64 192 -64 176
WIRE 768 192 768 176
WIRE -48 272 -64 272
WIRE 48 272 32 272
WIRE 720 272 720 -32
WIRE 720 272 368 272
WIRE 768 288 768 272
WIRE 128 352 128 336
WIRE 288 352 288 336
WIRE 128 432 128 416
FLAG 128 432 0
FLAG 288 352 0
FLAG -64 272 0
FLAG 512 80 0
FLAG -256 80 0
FLAG -64 192 0
FLAG 768 288 0
FLAG 864 80 0
FLAG 960 80 0
FLAG 464 80 0
FLAG -256 -32 IN
FLAG 960 -32 OUT
FLAG -160 80 0
FLAG 32 176 0
SYMBOL LT8331 208 176 R0
SYMATTR InstName U1
SYMBOL cap 112 352 R0
SYMATTR InstName C1
SYMATTR Value 10n
SYMBOL res 48 256 R90
WINDOW 0 0 56 VBottom 2
WINDOW 3 32 56 VTop 2
SYMATTR InstName R1
SYMATTR Value 63.4K
SYMBOL VOLTAGE -256 -32 R0
SYMATTR InstName V1
SYMATTR Value 48
SYMBOL ind2 272 -16 M270
WINDOW 0 32 56 VTop 2
WINDOW 3 5 56 VBottom 2
SYMATTR InstName L1
SYMATTR Value 220µ
SYMATTR Type ind
SYMATTR SpiceLine Rser=20m
SYMBOL cap 368 -16 R270
WINDOW 0 32 32 VTop 2
WINDOW 3 0 32 VBottom 2
SYMATTR InstName C2
SYMATTR Value 2.2µ
SYMATTR SpiceLine Rser=10m
SYMBOL ind2 496 -32 R0
SYMATTR InstName L2
SYMATTR Value 220µ
SYMATTR Type ind
SYMATTR SpiceLine Rser=20m
SYMBOL res -80 -32 R0
SYMATTR InstName R2
SYMATTR Value 1Meg
SYMBOL res -80 80 R0
SYMATTR InstName R3
SYMATTR Value 59K
SYMBOL schottky 608 -16 R270
WINDOW 0 32 32 VTop 2
WINDOW 3 0 32 VBottom 2
SYMATTR InstName D1
SYMATTR Value MBRS1100
SYMATTR Description Diode
SYMATTR Type diode
SYMBOL polcap 848 -16 R0
WINDOW 3 36 29 Left 2
WINDOW 123 32 59 Left 2
SYMATTR Value 4.7µ
SYMATTR Value2 x4
SYMATTR InstName C3
SYMATTR Description Capacitor
SYMATTR Type cap
SYMATTR SpiceLine V=63 Irms=1.73205 Rser=0.075 Lser=0 mfg="KEMET" pn="T521D475M063ATE075" type="Tantalum"
SYMBOL res 752 64 R0
SYMATTR InstName R4
SYMATTR Value 1Meg
SYMBOL res 752 176 R0
SYMATTR InstName R5
SYMATTR Value 34.8K
SYMBOL res 944 -32 R0
SYMATTR InstName Rload
SYMATTR Value 290
SYMBOL cap 384 96 R270
WINDOW 0 32 32 VTop 2
WINDOW 3 0 32 VBottom 2
SYMATTR InstName C4
SYMATTR Value 1µ
SYMBOL cap -176 -16 R0
SYMATTR InstName C5
SYMATTR Value 2.2µ
TEXT 568 360 Left 2 !.tran 10m startup
TEXT 400 -80 Bottom 2 !K1 L1 L2 1
TEXT 344 -120 Bottom 2 ;LT8331 - Low Iq Boost/SEPIC/Flyback/Inverting DC/DC Converter with 500mA, 140V Switch\n48V SEPIC Converter\nInput: 36V to 72V     Output: 48V @ 165mA, Fsw = 450KHz
TEXT -328 440 Left 2 ;Note:\n  A smaller SS capacitor is being used to reduce simulation time. See datasheet for typical values.\n  If the simulation model is not found please update with the "Sync Release" command from the "Tools" menu.\n  It remains the customer's responsibility to verify proper and reliable operation in the actual application.\n  Component substitution and printed circuit board layout may significantly affect circuit performance or reliability.\n  Contact your local sales representative for assistance. This circuit is distributed to customers only for use with LTC parts.\n  Copyright © 2016 Linear Technology Inc. All rights reserved.
