Version 4
SHEET 1 1512 704
WIRE -160 -32 -256 -32
WIRE -64 -32 -160 -32
WIRE 128 -32 -64 -32
WIRE 176 -32 128 -32
WIRE 288 -32 256 -32
WIRE 400 -32 288 -32
WIRE 528 -32 464 -32
WIRE 576 -32 528 -32
WIRE 672 -32 576 -32
WIRE 752 -32 672 -32
WIRE -256 -16 -256 -32
WIRE -160 -16 -160 -32
WIRE -64 -16 -64 -32
WIRE 672 -16 672 -32
WIRE 752 -16 752 -32
WIRE 128 16 128 -32
WIRE 288 16 288 -32
WIRE -256 80 -256 64
WIRE -160 80 -160 48
WIRE -64 80 -64 64
WIRE 48 80 -64 80
WIRE 384 80 368 80
WIRE 464 80 448 80
WIRE 576 80 576 -32
WIRE 672 80 672 48
WIRE 752 80 752 64
WIRE -64 96 -64 80
WIRE 48 176 32 176
WIRE 576 176 576 160
WIRE 576 176 368 176
WIRE -64 192 -64 176
WIRE 576 192 576 176
WIRE -48 272 -64 272
WIRE 48 272 32 272
WIRE 528 272 528 -32
WIRE 528 272 368 272
WIRE 576 288 576 272
WIRE 128 352 128 336
WIRE 288 352 288 336
WIRE 128 432 128 416
FLAG 128 432 0
FLAG 288 352 0
FLAG -64 272 0
FLAG -256 80 0
FLAG -64 192 0
FLAG 576 288 0
FLAG 672 80 0
FLAG 752 80 0
FLAG 464 80 0
FLAG -256 -32 IN
FLAG 752 -32 OUT
FLAG -160 80 0
FLAG 32 176 0
SYMBOL LT8331 208 176 R0
SYMATTR InstName U1
SYMBOL cap 112 352 R0
SYMATTR InstName C1
SYMATTR Value 10n
SYMBOL res 48 256 R90
WINDOW 0 0 56 VBottom 2
WINDOW 3 32 56 VTop 2
SYMATTR InstName R1
SYMATTR Value 63.4K
SYMBOL VOLTAGE -256 -32 R0
SYMATTR InstName V1
SYMATTR Value 48
SYMBOL ind2 272 -16 M270
WINDOW 0 32 56 VTop 2
WINDOW 3 5 56 VBottom 2
SYMATTR InstName L1
SYMATTR Value 100µ
SYMATTR Type ind
SYMATTR SpiceLine Rser=20m
SYMBOL res -80 -32 R0
SYMATTR InstName R2
SYMATTR Value 1Meg
SYMBOL res -80 80 R0
SYMATTR InstName R3
SYMATTR Value 59K
SYMBOL schottky 400 -16 R270
WINDOW 0 32 32 VTop 2
WINDOW 3 0 32 VBottom 2
SYMATTR InstName D1
SYMATTR Value RB058L150
SYMATTR Description Diode
SYMATTR Type diode
SYMBOL res 560 64 R0
SYMATTR InstName R4
SYMATTR Value 1Meg
SYMBOL res 560 176 R0
SYMATTR InstName R5
SYMATTR Value 13.3K
SYMBOL res 736 -32 R0
SYMATTR InstName Rload
SYMATTR Value 2000
SYMBOL cap 384 96 R270
WINDOW 0 32 32 VTop 2
WINDOW 3 0 32 VBottom 2
SYMATTR InstName C4
SYMATTR Value 1µ
SYMBOL cap -176 -16 R0
SYMATTR InstName C5
SYMATTR Value 4.7µ
SYMBOL cap 656 -16 R0
SYMATTR InstName C2
SYMATTR Value 1µ
TEXT 536 376 Left 2 !.tran 5m startup
TEXT 264 -88 Bottom 2 ;LT8331 - Low IQ Boost/SEPIC/Flyback/Inverting DC/DC Converter with 500mA, 140V Switch\n120V Boost Converter\nInput: 36V to 72V     Output: 120V @ 60mA, Fsw = 450KHz
TEXT -384 448 Left 2 ;Note:\n  A smaller SS capacitor is being used to reduce simulation time. See datasheet for typical values.\n  If the simulation model is not found please update with the "Sync Release" command from the "Tools" menu.\n  It remains the customer's responsibility to verify proper and reliable operation in the actual application.\n  Component substitution and printed circuit board layout may significantly affect circuit performance or reliability.\n  Contact your local sales representative for assistance. This circuit is distributed to customers only for use with LTC parts.\n  Copyright © 2016 Linear Technology Inc. All rights reserved.
