Version 4
SHEET 1 1524 804
WIRE -1456 -1008 -1632 -1008
WIRE -1376 -1008 -1456 -1008
WIRE -928 -1008 -1376 -1008
WIRE -544 -1008 -928 -1008
WIRE -320 -1008 -464 -1008
WIRE -272 -1008 -320 -1008
WIRE -160 -1008 -208 -1008
WIRE -96 -1008 -160 -1008
WIRE 0 -1008 -96 -1008
WIRE -1456 -992 -1456 -1008
WIRE -928 -992 -928 -1008
WIRE -96 -992 -96 -1008
WIRE 0 -992 0 -1008
WIRE -1728 -944 -1760 -944
WIRE -1632 -944 -1632 -1008
WIRE -1632 -944 -1664 -944
WIRE -1600 -944 -1632 -944
WIRE -1504 -944 -1536 -944
WIRE -1200 -928 -1216 -928
WIRE -992 -928 -1120 -928
WIRE -544 -912 -576 -912
WIRE -432 -912 -464 -912
WIRE -1456 -896 -1456 -928
WIRE -928 -896 -928 -912
WIRE -96 -896 -96 -928
WIRE 0 -896 0 -912
WIRE -752 -864 -752 -880
WIRE -1760 -816 -1760 -944
WIRE -1680 -816 -1760 -816
WIRE -1504 -816 -1504 -944
WIRE -1504 -816 -1600 -816
WIRE -1376 -752 -1376 -1008
WIRE -1072 -752 -1088 -752
WIRE -992 -752 -992 -928
WIRE -992 -752 -1008 -752
WIRE -928 -752 -928 -832
WIRE -928 -752 -992 -752
WIRE -864 -752 -928 -752
WIRE -752 -752 -752 -800
WIRE -752 -752 -800 -752
WIRE -656 -752 -752 -752
WIRE -528 -752 -576 -752
WIRE -432 -752 -432 -912
WIRE -432 -752 -464 -752
WIRE -928 -704 -928 -752
WIRE -928 -704 -1216 -704
WIRE -1760 -688 -1760 -816
WIRE -1728 -688 -1760 -688
WIRE -1632 -688 -1664 -688
WIRE -1600 -688 -1632 -688
WIRE -1504 -688 -1504 -816
WIRE -1504 -688 -1536 -688
WIRE -1216 -688 -1216 -704
WIRE -160 -688 -160 -1008
WIRE -720 -672 -736 -672
WIRE -592 -672 -640 -672
WIRE -432 -672 -432 -752
WIRE -432 -672 -528 -672
WIRE -928 -656 -928 -704
WIRE -1632 -640 -1632 -688
WIRE -1328 -592 -1344 -592
WIRE -1216 -592 -1216 -608
WIRE -1216 -592 -1248 -592
WIRE -1088 -592 -1216 -592
WIRE -736 -592 -736 -672
WIRE -736 -592 -768 -592
WIRE -560 -576 -672 -576
WIRE -160 -576 -160 -608
WIRE -160 -576 -560 -576
WIRE -560 -560 -560 -576
WIRE -160 -560 -160 -576
WIRE -1376 -496 -1376 -672
WIRE -1088 -496 -1376 -496
WIRE -672 -496 -672 -576
WIRE -672 -496 -768 -496
WIRE -320 -480 -320 -1008
WIRE -560 -464 -560 -496
WIRE -160 -464 -160 -480
WIRE -1296 -400 -1312 -400
WIRE -1200 -400 -1216 -400
WIRE -1184 -400 -1200 -400
WIRE -1088 -400 -1104 -400
WIRE -736 -400 -768 -400
WIRE -368 -400 -656 -400
WIRE -1200 -304 -1200 -400
WIRE -1088 -304 -1200 -304
WIRE -496 -304 -768 -304
WIRE -432 -304 -496 -304
WIRE -320 -304 -320 -384
WIRE -320 -304 -352 -304
WIRE -496 -288 -496 -304
WIRE -320 -288 -320 -304
WIRE -1168 -208 -1184 -208
WIRE -1088 -208 -1104 -208
WIRE -736 -208 -768 -208
WIRE -688 -208 -736 -208
WIRE -576 -208 -608 -208
WIRE -736 -192 -736 -208
WIRE -576 -192 -576 -208
WIRE -496 -192 -496 -224
WIRE -320 -192 -320 -208
WIRE -928 -128 -928 -144
WIRE -736 -112 -736 -128
WIRE -576 -112 -576 -128
FLAG -928 -128 0
FLAG -1184 -208 0
FLAG -320 -192 0
FLAG -1088 -752 0
FLAG -576 -912 0
FLAG -96 -896 0
FLAG -1216 -928 0
FLAG -560 -464 0
FLAG -1632 -640 0
FLAG -1456 -896 0
FLAG -576 -112 0
FLAG -1344 -592 0
FLAG 0 -896 0
FLAG -160 -464 0
FLAG -1312 -400 0
FLAG 0 -1008 OUT
FLAG -1760 -816 +IN
FLAG -736 -112 0
FLAG -1504 -816 -IN
FLAG -752 -880 0
FLAG -496 -192 0
SYMBOL cap -1104 -224 R90
WINDOW 0 0 32 VBottom 2
WINDOW 3 32 32 VTop 2
SYMATTR InstName C1
SYMATTR Value 4.7µ
SYMBOL cap -592 -192 R0
SYMATTR InstName C2
SYMATTR Value 470n
SYMBOL nmos -368 -480 R0
WINDOW 0 55 25 Left 2
WINDOW 3 55 74 Left 2
SYMATTR InstName Q1
SYMATTR Value IPB65R420CFD
SYMBOL res -336 -304 R0
SYMATTR InstName R1
SYMATTR Value .015
SYMBOL res -704 -192 R270
WINDOW 0 32 56 VTop 2
WINDOW 3 0 56 VBottom 2
SYMATTR InstName R2
SYMATTR Value 4.7K
SYMBOL ind2 -560 -1024 M90
WINDOW 0 4 56 VBottom 2
WINDOW 3 32 56 VTop 2
SYMATTR InstName L1
SYMATTR Value 450µ
SYMATTR Type ind
SYMBOL ind2 -560 -896 R270
WINDOW 0 32 56 VTop 2
WINDOW 3 4 56 VBottom 2
SYMATTR InstName L2
SYMATTR Value 4.5µ
SYMATTR Type ind
SYMBOL cap -528 -688 R90
WINDOW 3 0 32 VBottom 2
WINDOW 39 -21 32 VBottom 2
WINDOW 0 32 32 VTop 2
SYMATTR Value 27p
SYMATTR InstName C3
SYMBOL cap -1008 -768 R90
WINDOW 0 0 32 VBottom 2
WINDOW 3 32 32 VTop 2
SYMATTR InstName C4
SYMATTR Value 10µ
SYMBOL res -1392 -768 R0
SYMATTR InstName R3
SYMATTR Value 1Meg
SYMBOL diode -800 -768 R90
WINDOW 0 0 32 VBottom 2
WINDOW 3 32 32 VTop 2
SYMATTR InstName D1
SYMATTR Value 1N4148
SYMBOL res -944 -1008 R0
SYMATTR InstName R4
SYMATTR Value 300K
SYMBOL diode -272 -1024 M90
WINDOW 0 0 32 VBottom 2
WINDOW 3 32 32 VTop 2
SYMATTR InstName D2
SYMATTR Value RFN5TF6S
SYMBOL cap -112 -992 R0
SYMATTR InstName C5
SYMATTR Value 10µ
SYMBOL current -1200 -928 M90
WINDOW 0 -32 40 VBottom 2
WINDOW 3 32 40 VTop 2
WINDOW 123 74 40 VTop 2
WINDOW 39 53 40 VTop 2
SYMATTR InstName I1
SYMATTR Value PWL(0 0 10u 38 20u 0)
SYMBOL res -176 -576 R0
SYMATTR InstName R5
SYMATTR Value 9.53K
SYMBOL res -176 -704 R0
SYMATTR InstName R6
SYMATTR Value 3Meg
SYMBOL diode -1728 -928 R270
WINDOW 3 0 32 VBottom 2
WINDOW 0 32 32 VTop 2
SYMATTR Value 1N4007
SYMATTR InstName D5
SYMBOL diode -1600 -672 R270
WINDOW 0 32 32 VTop 2
WINDOW 3 0 32 VBottom 2
SYMATTR InstName D6
SYMATTR Value 1N4007
SYMBOL diode -1664 -672 M270
WINDOW 0 32 32 VTop 2
WINDOW 3 0 32 VBottom 2
SYMATTR InstName D7
SYMATTR Value 1N4007
SYMBOL diode -1536 -928 M270
WINDOW 0 32 32 VTop 2
WINDOW 3 0 32 VBottom 2
SYMATTR InstName D8
SYMATTR Value 1N4007
SYMBOL voltage -1696 -816 R270
WINDOW 0 32 56 VTop 2
WINDOW 3 -32 56 VBottom 2
WINDOW 123 -74 56 VBottom 2
WINDOW 39 -53 56 VBottom 2
SYMATTR InstName V1
SYMATTR Value SINE(0 167 600)
SYMBOL cap -1472 -992 R0
SYMATTR Value 0.1µ
SYMATTR InstName C6
SYMBOL cap -752 -192 R0
SYMATTR InstName C7
SYMATTR Value 68n
SYMBOL res -1088 -416 R90
WINDOW 0 0 56 VBottom 2
WINDOW 3 32 56 VTop 2
SYMATTR InstName R7
SYMATTR Value 11.8K
SYMBOL res -560 -768 R90
WINDOW 0 0 56 VBottom 2
WINDOW 3 32 56 VTop 2
SYMATTR InstName R8
SYMATTR Value 47
SYMBOL res -1232 -608 R90
WINDOW 0 0 56 VBottom 2
WINDOW 3 32 56 VTop 2
SYMATTR InstName R9
SYMATTR Value 301K
SYMBOL cap -576 -560 R0
SYMATTR InstName C8
SYMATTR Value 100p
SYMBOL res -1200 -416 R90
WINDOW 0 0 56 VBottom 2
WINDOW 3 32 56 VTop 2
SYMATTR InstName R10
SYMATTR Value 24.9K
SYMBOL res -1232 -704 R0
SYMATTR InstName R11
SYMATTR Value 2.4Meg
SYMBOL res -624 -688 R90
WINDOW 0 0 56 VBottom 2
WINDOW 3 32 56 VTop 2
SYMATTR InstName R12
SYMATTR Value 2K
SYMBOL res -16 -1008 R0
SYMATTR InstName Rload
SYMATTR Value 2K
SYMBOL LT8312 -928 -400 R0
SYMATTR InstName U2
SYMBOL diode -944 -896 R0
SYMATTR InstName D9
SYMATTR Value 1N4148
SYMBOL cap -464 -768 R90
WINDOW 3 0 32 VBottom 2
WINDOW 39 -21 32 VBottom 2
WINDOW 0 32 32 VTop 2
SYMATTR Value 4.7n
SYMATTR InstName C9
SYMBOL res -640 -416 R90
WINDOW 0 0 56 VBottom 2
WINDOW 3 32 56 VTop 2
SYMATTR InstName R13
SYMATTR Value 10
SYMBOL res -336 -320 R90
WINDOW 0 0 56 VBottom 2
WINDOW 3 32 56 VTop 2
SYMATTR InstName R14
SYMATTR Value 100
SYMBOL cap -512 -288 R0
SYMATTR InstName C10
SYMATTR Value 100p
SYMBOL zener -768 -864 R0
SYMATTR Value UMZ24K
SYMATTR InstName D3
SYMATTR Description Diode
SYMATTR Type diode
TEXT -504 -1064 Bottom 2 !K1 L1 L2 1
TEXT -272 -56 Left 2 !.tran 0.06
TEXT -1648 -608 Top 2 !.model 1N4007 D(Is=90p Rs=40m\n+  Cjo=30p N=1.4 TT=5u)
TEXT -920 -1040 Bottom 2 ;LT8312 - Boost Controller with Power Factor Correction\nUniversal Input 150W PFC Boost Converter\nInput: 90VAC to 265VAC  Output: 400V @ 0.375A
TEXT -1512 0 Left 2 ;Note:\n  Decrease in VC and output capacitances, I1 current injection and 600Hz source frequency is being used to speed up simulation.\n  If the simulation model is not found please update with the "Sync Release" command from the "Tools" menu.\n  It remains the customer's responsibility to verify proper and reliable operation in the actual application.\n  Component substitution and printed circuit board layout may significantly affect circuit performance or reliability.\n  Contact your local sales representative for assistance. This circuit is distributed to customers only for use with LTC parts.\n  Copyright © 2016 Linear Technology Inc. All rights reserved.
LINE Normal -560 -960 -448 -960 2
