Version 4
SHEET 1 1672 820
WIRE 656 -64 656 -80
WIRE 560 -48 560 -80
WIRE 560 32 560 16
WIRE 560 32 112 32
WIRE 656 32 656 16
WIRE 656 32 560 32
WIRE 560 64 560 32
WIRE 400 80 400 64
WIRE -32 160 -32 144
WIRE 112 176 112 32
WIRE 128 176 112 176
WIRE 400 176 400 144
WIRE 400 176 352 176
WIRE 560 176 560 144
WIRE 560 176 400 176
WIRE 400 192 400 176
WIRE -32 272 -32 240
WIRE 128 272 -32 272
WIRE 400 272 352 272
WIRE -32 304 -32 272
WIRE -208 352 -208 336
WIRE -112 368 -112 336
WIRE 128 368 64 368
WIRE 400 368 352 368
WIRE 64 384 64 368
WIRE 400 400 400 368
WIRE -208 464 -208 432
WIRE -112 464 -112 432
WIRE -112 464 -208 464
WIRE -32 464 -32 384
WIRE -32 464 -112 464
WIRE 64 464 64 448
WIRE 64 464 -32 464
WIRE 128 464 64 464
WIRE 64 528 64 464
WIRE 400 528 400 480
WIRE 400 528 64 528
FLAG 656 32 OUT
FLAG -208 336 0
FLAG 656 -80 0
FLAG -32 144 0
FLAG -208 464 IN
FLAG -112 336 0
FLAG 560 -80 0
FLAG 400 64 0
SYMBOL voltage -208 448 M180
WINDOW 123 24 -26 Left 2
WINDOW 39 24 -5 Left 2
WINDOW 0 24 96 Left 2
WINDOW 3 24 16 Left 2
SYMATTR InstName V1
SYMATTR Value -42
SYMBOL res 384 176 R0
SYMATTR InstName R1
SYMATTR Value 121K
SYMBOL schottky 384 144 M180
WINDOW 0 24 64 Left 2
WINDOW 3 24 0 Left 2
SYMATTR InstName D1
SYMATTR Value MBRS360
SYMATTR Description Diode
SYMATTR Type diode
SYMBOL cap 544 -48 R0
SYMATTR InstName C1
SYMATTR Value 47µ
SYMATTR SpiceLine V=6.3 Rser=0.003
SYMBOL res 640 -80 R0
SYMATTR InstName Rload
SYMATTR Value 6.67
SYMBOL cap 48 384 R0
SYMATTR InstName C2
SYMATTR Value 1µ
SYMBOL res 384 384 R0
SYMATTR InstName R3
SYMATTR Value 10k
SYMBOL LT8302 240 320 R0
SYMATTR InstName U1
SYMBOL ind 544 160 M180
WINDOW 0 36 80 Left 2
WINDOW 3 36 40 Left 2
SYMATTR InstName L1
SYMATTR Value 12µ
SYMBOL res -48 144 R0
SYMATTR InstName R4
SYMATTR Value 806K
SYMBOL res -48 288 R0
SYMATTR InstName R5
SYMATTR Value 232K
SYMBOL cap -128 432 M180
WINDOW 0 24 56 Left 2
WINDOW 3 24 8 Left 2
SYMATTR InstName C3
SYMATTR Value 10µ
TEXT 504 512 Left 2 !.tran 8m startup
TEXT 256 -72 Bottom 2 ;LT8302 - 42Vin µPower No-Opto Isolated Flyback Converter with 65V/3.6A Switch\nUsed as a Negative to Negative Buck Converter\nInput: -18V to -42V       Output: -12V @ 1.8A
TEXT -320 536 Left 2 ;Note:\n  If the simulation model is not found please update with the "Sync Release" command from the "Tools" menu.\n  It remains the customer's responsibility to verify proper and reliable operation in the actual application.\n  Component substitution and printed circuit board layout may significantly affect circuit performance or reliability.\n  Contact your local sales representative for assistance. This circuit is distributed to customers only for use with LTC parts.\n  Copyright © 2014 Linear Technology Inc. All rights reserved.
