Version 4
SHEET 1 1512 780
WIRE -32 0 -128 0
WIRE 240 0 -32 0
WIRE 416 0 240 0
WIRE 576 0 464 0
WIRE 704 0 640 0
WIRE 800 0 704 0
WIRE -128 16 -128 0
WIRE 240 16 240 0
WIRE 416 16 416 0
WIRE 464 16 464 0
WIRE 704 16 704 0
WIRE 800 16 800 0
WIRE 240 96 240 80
WIRE -128 112 -128 96
WIRE 464 112 464 96
WIRE 704 112 704 80
WIRE 800 112 800 96
WIRE -32 176 -32 0
WIRE 128 176 -32 176
WIRE 416 176 416 96
WIRE 416 176 352 176
WIRE -32 192 -32 176
WIRE 416 192 416 176
WIRE 128 272 -32 272
WIRE 416 272 352 272
WIRE -32 288 -32 272
WIRE 128 368 64 368
WIRE 432 368 352 368
WIRE -32 384 -32 368
WIRE 64 384 64 368
WIRE 432 384 432 368
WIRE 64 464 64 448
WIRE 128 464 64 464
WIRE 432 480 432 464
WIRE 64 496 64 464
FLAG -128 112 0
FLAG -32 384 0
FLAG -128 0 IN
FLAG 464 112 0
FLAG 704 112 0
FLAG 800 112 0
FLAG 800 0 OUT
FLAG 240 96 0
FLAG 64 496 0
FLAG 432 480 0
SYMBOL voltage -128 0 R0
WINDOW 123 0 0 Left 2
WINDOW 39 0 0 Left 2
SYMATTR InstName Vin
SYMATTR Value 24
SYMBOL res -48 176 R0
SYMATTR InstName R1
SYMATTR Value 1000K
SYMBOL res -48 272 R0
SYMATTR InstName R2
SYMATTR Value 200K
SYMBOL ind2 400 0 R0
WINDOW 0 -1 46 Right 2
WINDOW 3 0 76 Right 2
SYMATTR InstName L1
SYMATTR Value 9µ
SYMATTR Type ind
SYMATTR SpiceLine Rser=36m Rpar=500k Cpar=4.7p
SYMBOL ind2 480 112 R180
WINDOW 0 -3 64 Right 2
WINDOW 3 1 34 Right 2
SYMATTR InstName L2
SYMATTR Value 1µ
SYMATTR Type ind
SYMATTR SpiceLine Rser=7m Cpar=1p
SYMBOL res 400 176 R0
SYMATTR InstName R4
SYMATTR Value 158K
SYMBOL schottky 576 16 R270
WINDOW 0 32 32 VTop 2
WINDOW 3 0 32 VBottom 2
SYMATTR InstName D1
SYMATTR Value B530C
SYMATTR Description Diode
SYMATTR Type diode
SYMBOL cap 688 16 R0
SYMATTR InstName C5
SYMATTR Value 100µ
SYMATTR SpiceLine V=6.3 Rser=0.003
SYMBOL cap 224 16 R0
WINDOW 3 26 52 Left 2
SYMATTR Value 10µ
SYMATTR InstName C1
SYMATTR SpiceLine V=50 Irms=4 Rser=0.001
SYMBOL res 784 0 R0
SYMATTR InstName Rload
SYMATTR Value 2.27
SYMBOL cap 48 384 R0
SYMATTR InstName C3
SYMATTR Value 1µ
SYMBOL res 416 368 R0
SYMATTR InstName R6
SYMATTR Value 10K
SYMBOL PowerProducts\\LT8302 240 320 R0
SYMATTR InstName U1
TEXT 440 -32 Bottom 2 !K1 L1 L2 0.999
TEXT 632 456 Left 2 !.tran 7.5m startup
TEXT 328 -72 Bottom 2 ;LT8302 - 42Vin µPower No-Opto Isolated Flyback Converter with 65V/3.6A Switch\nµPower No-Opto Isolated Flyback Converter\nInput: 10V to 30V       Output: 5V @ 2.2A
TEXT -272 528 Left 2 ;Note:\n  If the simulation model is not found please update with the "Sync Release" command from the "Tools" menu.\n  It remains the customer's responsibility to verify proper and reliable operation in the actual application.\n  Component substitution and printed circuit board layout may significantly affect circuit performance or reliability.\n  Contact your local sales representative for assistance. This circuit is distributed to customers only for use with LTC parts.\n  Copyright © 2013 Linear Technology Inc. All rights reserved.
TEXT 440 0 Bottom 2 ;750311564
TEXT 496 120 Left 2 ;Nps = 3:1
