Version 4
SHEET 1 1480 680
WIRE -48 48 -144 48
WIRE 32 48 -48 48
WIRE 128 48 32 48
WIRE 176 48 128 48
WIRE 288 48 256 48
WIRE 320 48 288 48
WIRE 416 48 384 48
WIRE 480 48 416 48
WIRE 624 48 560 48
WIRE 736 48 624 48
WIRE 832 48 736 48
WIRE 928 48 832 48
WIRE -144 64 -144 48
WIRE -48 64 -48 48
WIRE 832 64 832 48
WIRE 928 64 928 48
WIRE 416 80 416 48
WIRE 624 80 624 48
WIRE 128 96 128 48
WIRE 288 96 288 48
WIRE 736 96 736 48
WIRE -144 160 -144 144
WIRE -48 160 -48 128
WIRE 416 160 416 144
WIRE 832 160 832 128
WIRE 928 160 928 144
WIRE 32 208 32 48
WIRE 48 208 32 208
WIRE 624 208 624 160
WIRE 624 208 368 208
WIRE 736 208 736 160
WIRE 736 208 624 208
WIRE 624 224 624 208
WIRE 624 320 624 304
WIRE 128 336 128 320
WIRE 288 336 288 320
WIRE 128 416 128 400
FLAG 128 416 0
FLAG 288 336 0
FLAG -144 160 0
FLAG 624 320 0
FLAG 928 160 0
FLAG 832 160 0
FLAG -144 48 IN
FLAG 928 48 OUT
FLAG 416 160 0
FLAG -48 160 0
SYMBOL LT8330 208 208 R0
SYMATTR InstName U1
SYMBOL cap 112 336 R0
SYMATTR InstName C1
SYMATTR Value 1µ
SYMBOL voltage -144 48 R0
SYMATTR InstName V1
SYMATTR Value 12
SYMBOL ind2 160 64 R270
WINDOW 0 32 56 VTop 2
WINDOW 3 5 56 VBottom 2
SYMATTR InstName L1
SYMATTR Value 4.7µ
SYMATTR SpiceLine Rser=.1
SYMATTR Type ind
SYMBOL res 608 64 R0
SYMATTR InstName R1
SYMATTR Value 1Meg
SYMBOL res 608 208 R0
SYMATTR InstName R2
SYMATTR Value 71.5K
SYMBOL cap 720 96 R0
SYMATTR InstName C2
SYMATTR Value 4.7p
SYMBOL cap 816 64 R0
SYMATTR InstName C3
SYMATTR Value 4.7µ
SYMATTR SpiceLine Rser=10m
SYMBOL res 912 48 R0
SYMATTR InstName Rload
SYMATTR Value 45
SYMBOL schottky 400 80 R0
SYMATTR Value PMEG6010AED
SYMATTR InstName D1
SYMATTR Description Diode
SYMATTR Type diode
SYMBOL cap 384 32 R90
WINDOW 0 0 32 VBottom 2
WINDOW 3 32 32 VTop 2
SYMATTR InstName C4
SYMATTR Value 1µ
SYMATTR SpiceLine Rser=10m
SYMBOL ind2 576 64 M270
WINDOW 0 32 56 VTop 2
WINDOW 3 5 56 VBottom 2
SYMATTR InstName L2
SYMATTR Value 4.7µ
SYMATTR SpiceLine Rser=.1
SYMATTR Type ind
SYMBOL cap -64 64 R0
SYMATTR InstName C5
SYMATTR Value 4.7µ
SYMATTR SpiceLine Rser=10m
TEXT 760 360 Left 2 !.tran 2m startup
TEXT 408 -40 Bottom 2 ;LT8330 - Low Iq Boost/SEPIC/Inverting Converter with 1A, 60V Switch\nInverting Converter\nInput: 4V to 36V       Output: -12V @ 270mA with 12V Input
TEXT -224 440 Left 2 ;Note:\n  If the simulation model is not found please update with the "Sync Release" command from the "Tools" menu.\n  It remains the customer's responsibility to verify proper and reliable operation in the actual application.\n  Component substitution and printed circuit board layout may significantly affect circuit performance or reliability.\n  Contact your local sales representative for assistance. This circuit is distributed to customers only for use with LTC parts.\n  Copyright © 2015 Linear Technology Inc. All rights reserved.
TEXT 280 -8 Left 2 !K1 L1 L2 0.97
