Version 4
SHEET 1 1480 680
WIRE -48 48 -144 48
WIRE 32 48 -48 48
WIRE 128 48 32 48
WIRE 176 48 128 48
WIRE 288 48 256 48
WIRE 336 48 288 48
WIRE 480 48 400 48
WIRE 592 48 480 48
WIRE 704 48 592 48
WIRE 800 48 704 48
WIRE -144 64 -144 48
WIRE -48 64 -48 48
WIRE 704 64 704 48
WIRE 800 64 800 48
WIRE 480 80 480 48
WIRE 128 96 128 48
WIRE 288 96 288 48
WIRE 592 96 592 48
WIRE -144 160 -144 144
WIRE -48 160 -48 128
WIRE 704 160 704 128
WIRE 800 160 800 144
WIRE 32 208 32 48
WIRE 48 208 32 208
WIRE 480 208 480 160
WIRE 480 208 368 208
WIRE 592 208 592 160
WIRE 592 208 480 208
WIRE 480 224 480 208
WIRE 480 320 480 304
WIRE 128 336 128 320
WIRE 288 336 288 320
WIRE 128 416 128 400
FLAG 128 416 0
FLAG 288 336 0
FLAG -144 160 0
FLAG 480 320 0
FLAG 800 160 0
FLAG 704 160 0
FLAG -144 48 IN
FLAG 800 48 OUT
FLAG -48 160 0
SYMBOL LT8330 208 208 R0
SYMATTR InstName U1
SYMBOL cap 112 336 R0
SYMATTR InstName C1
SYMATTR Value 1µ
SYMBOL voltage -144 48 R0
SYMATTR InstName V1
SYMATTR Value 12
SYMBOL ind 160 64 R270
WINDOW 0 32 56 VTop 2
WINDOW 3 5 56 VBottom 2
SYMATTR InstName L1
SYMATTR Value 6.8µ
SYMATTR SpiceLine Rser=.1
SYMBOL res 464 64 R0
SYMATTR InstName R1
SYMATTR Value 1Meg
SYMBOL res 464 208 R0
SYMATTR InstName R2
SYMATTR Value 34.8K
SYMBOL cap 576 96 R0
SYMATTR InstName C2
SYMATTR Value 4.7p
SYMBOL cap 688 64 R0
SYMATTR InstName C3
SYMATTR Value 4.7µ
SYMATTR SpiceLine Rser=10m
SYMBOL res 784 48 R0
SYMATTR InstName Rload
SYMATTR Value 355
SYMBOL schottky 336 64 R270
WINDOW 0 32 32 VTop 2
WINDOW 3 -3 49 VBottom 2
SYMATTR InstName D1
SYMATTR Value PMEG6010AED
SYMATTR Description Diode
SYMATTR Type diode
SYMBOL cap -64 64 R0
SYMATTR InstName C4
SYMATTR Value 4.7µ
SYMATTR SpiceLine Rser=10m
TEXT 600 336 Left 2 !.tran 2m startup
TEXT 312 0 Bottom 2 ;LT8330 - Low Iq Boost/SEPIC/Inverting Converter with 1A, 60V Switch\n48V Boost Converter\nInput: 10V to 36V       Output: 48V @ 135mA with 12V Input
TEXT -320 440 Left 2 ;Note:\n  If the simulation model is not found please update with the "Sync Release" command from the "Tools" menu.\n  It remains the customer's responsibility to verify proper and reliable operation in the actual application.\n  Component substitution and printed circuit board layout may significantly affect circuit performance or reliability.\n  Contact your local sales representative for assistance. This circuit is distributed to customers only for use with LTC parts.\n  Copyright © 2015 Linear Technology Inc. All rights reserved.
