Version 4
SHEET 1 1632 680
WIRE -32 -64 -128 -64
WIRE 64 -64 -32 -64
WIRE 352 -64 64 -64
WIRE 544 -64 352 -64
WIRE 688 -64 592 -64
WIRE 816 -64 752 -64
WIRE 928 -64 816 -64
WIRE -128 -48 -128 -64
WIRE -32 -48 -32 -64
WIRE 352 -48 352 -64
WIRE 544 -48 544 -64
WIRE 592 -48 592 -64
WIRE 816 -48 816 -64
WIRE 928 -48 928 -64
WIRE -128 48 -128 32
WIRE -32 48 -32 16
WIRE 64 48 64 -64
WIRE 80 48 64 48
WIRE 352 48 352 16
WIRE 352 48 304 48
WIRE 544 48 544 32
WIRE 544 48 352 48
WIRE 592 48 592 32
WIRE 816 48 816 16
WIRE 928 48 928 32
WIRE 352 64 352 48
WIRE 64 144 64 48
WIRE 80 144 64 144
WIRE 352 144 304 144
WIRE 0 240 -16 240
WIRE 80 240 64 240
WIRE 416 240 304 240
WIRE 432 240 416 240
WIRE 528 240 512 240
WIRE 80 336 64 336
WIRE 320 336 304 336
WIRE 416 336 416 240
WIRE 416 336 400 336
FLAG 64 336 0
FLAG -128 48 0
FLAG -16 240 0
FLAG 528 240 0
FLAG 928 48 0
FLAG -128 -64 IN
FLAG 928 -64 OUT
FLAG 592 48 0
FLAG 816 48 0
FLAG -32 48 0
SYMBOL voltage -128 -64 R0
SYMATTR InstName V1
SYMATTR Value 48
SYMBOL cap 64 224 R90
WINDOW 0 0 32 VBottom 2
WINDOW 3 32 32 VTop 2
SYMATTR InstName C1
SYMATTR Value 1µ
SYMBOL ind2 528 -64 R0
WINDOW 0 1 27 Right 2
WINDOW 3 1 80 Right 2
SYMATTR InstName L1
SYMATTR Value 40µ
SYMATTR Type ind
SYMATTR SpiceLine Rser=100m Rpar=500k Cpar=5p
SYMBOL ind2 608 48 R180
WINDOW 0 1 84 Right 2
WINDOW 3 4 34 Right 2
SYMATTR InstName L2
SYMATTR Value 1.111µ
SYMATTR Type ind
SYMATTR SpiceLine Rser=15m
SYMBOL schottky 688 -48 R270
WINDOW 0 32 32 VTop 2
WINDOW 3 0 32 VBottom 2
SYMATTR InstName D1
SYMATTR Value RBR5L40A
SYMATTR Description Diode
SYMATTR Type diode
SYMBOL cap 800 -48 R0
WINDOW 3 38 37 Left 2
WINDOW 123 25 64 Left 2
SYMATTR Value 47µ
SYMATTR Value2 x3
SYMATTR InstName C2
SYMATTR SpiceLine Rser=2m
SYMBOL cap 336 -48 R0
WINDOW 39 23 60 Left 2
WINDOW 3 38 35 Left 2
SYMATTR SpiceLine Rser=100
SYMATTR Value 270p
SYMATTR InstName C3
SYMBOL res 336 48 R0
SYMATTR InstName R1
SYMATTR Value 309K
SYMBOL res 416 256 R270
WINDOW 0 32 56 VTop 2
WINDOW 3 0 56 VBottom 2
SYMATTR InstName R2
SYMATTR Value 10K
SYMBOL res 416 320 R90
WINDOW 0 0 56 VBottom 2
WINDOW 3 32 56 VTop 2
SYMATTR InstName R3
SYMATTR Value 100K
SYMBOL res 912 -64 R0
SYMATTR InstName Rload
SYMATTR Value 2.5
SYMBOL LT8304 192 192 R0
SYMATTR InstName U1
SYMBOL cap -48 -48 R0
SYMATTR InstName C4
SYMATTR Value 18µ
TEXT 504 -88 Left 2 !K1 L1 L2 1
TEXT 744 104 Left 2 !.tran 5m startup
TEXT 400 -128 Bottom 2 ;LT8304 - 100Vin µPower No-Opto Isolated Flyback Converter with 150V/2A Switch\nµPower No-Opto Isolated Flyback Converter\nInput: 18V to 72V       Output: 5V @ 2A to 4.2A
TEXT -232 392 Left 2 ;Note:\n  If the simulation model is not found please update with the "Sync Release" command from the "Tools" menu.\n  It remains the customer's responsibility to verify proper and reliable operation in the actual application.\n  Component substitution and printed circuit board layout may significantly affect circuit performance or reliability.\n  Contact your local sales representative for assistance. This circuit is distributed to customers only for use with LTC parts.\n  Copyright © 2016 Linear Technology Inc. All rights reserved.
