Version 4
SHEET 1 2776 1032
WIRE -272 -288 -384 -288
WIRE -160 -288 -272 -288
WIRE -48 -288 -160 -288
WIRE 32 -288 -48 -288
WIRE 192 -288 112 -288
WIRE 256 -288 192 -288
WIRE 352 -288 320 -288
WIRE 480 -288 352 -288
WIRE 592 -288 544 -288
WIRE 640 -288 592 -288
WIRE 736 -288 640 -288
WIRE 816 -288 736 -288
WIRE 880 -288 816 -288
WIRE 976 -288 880 -288
WIRE 1072 -288 976 -288
WIRE -384 -272 -384 -288
WIRE -272 -272 -272 -288
WIRE -160 -272 -160 -288
WIRE 352 -272 352 -288
WIRE 880 -272 880 -288
WIRE 976 -272 976 -288
WIRE 1072 -272 1072 -288
WIRE -384 -176 -384 -192
WIRE -272 -176 -272 -208
WIRE -160 -176 -160 -208
WIRE 352 -176 352 -192
WIRE 880 -176 880 -208
WIRE 976 -176 976 -208
WIRE 1072 -176 1072 -192
WIRE 192 -144 192 -288
WIRE 640 -128 640 -288
WIRE -48 -112 -48 -288
WIRE -16 -112 -48 -112
WIRE 592 -112 592 -288
WIRE 592 -112 400 -112
WIRE -48 -32 -48 -112
WIRE -16 -32 -48 -32
WIRE 640 -32 640 -48
WIRE 640 -32 400 -32
WIRE 736 -32 736 -288
WIRE -96 48 -144 48
WIRE -16 48 -32 48
WIRE 464 48 400 48
WIRE 528 48 464 48
WIRE 640 48 640 -32
WIRE 640 48 608 48
WIRE 736 48 736 32
WIRE 736 48 640 48
WIRE 464 64 464 48
WIRE -128 128 -144 128
WIRE -16 128 -64 128
WIRE 416 128 400 128
WIRE 464 160 464 144
WIRE -96 208 -144 208
WIRE -16 208 -32 208
WIRE 688 208 400 208
WIRE 816 208 816 -288
WIRE 816 208 768 208
WIRE -128 288 -144 288
WIRE -16 288 -48 288
WIRE 432 288 400 288
WIRE 592 288 432 288
WIRE 816 288 816 208
WIRE 816 288 672 288
WIRE -272 368 -288 368
WIRE -16 368 -192 368
WIRE 432 368 432 288
WIRE 432 368 400 368
FLAG 352 -176 0
FLAG 1072 -288 OUT
FLAG -384 -288 IN
FLAG -144 48 0
FLAG -144 128 0
FLAG -144 208 0
FLAG -144 288 0
FLAG -384 -176 0
FLAG 464 160 0
FLAG 416 128 0
FLAG 1072 -176 0
FLAG 880 -176 0
FLAG -272 -176 0
FLAG -160 -176 0
FLAG 976 -176 0
FLAG -288 368 0
SYMBOL schottky 480 -304 M90
WINDOW 0 0 32 VBottom 2
WINDOW 3 32 32 VTop 2
SYMATTR InstName D1
SYMATTR Value MBRS1100
SYMATTR Description Diode
SYMATTR Type diode
SYMBOL LT8495 192 160 R0
SYMATTR InstName U1
SYMBOL cap 864 -272 R0
SYMATTR InstName C1
SYMATTR Value 47µ
SYMBOL cap -32 32 R90
WINDOW 0 0 32 VBottom 2
WINDOW 3 32 32 VTop 2
SYMATTR InstName C2
SYMATTR Value 1n
SYMBOL cap -64 112 R90
WINDOW 0 0 32 VBottom 2
WINDOW 3 32 32 VTop 2
SYMATTR InstName C3
SYMATTR Value 1n
SYMBOL cap -32 192 R90
WINDOW 0 0 32 VBottom 2
WINDOW 3 32 32 VTop 2
SYMATTR InstName C4
SYMATTR Value 47n
SYMBOL cap 320 -304 R90
WINDOW 0 0 32 VBottom 2
WINDOW 3 32 32 VTop 2
SYMATTR InstName C5
SYMATTR Value 2.2µ
SYMATTR SpiceLine V=100V Rser=0.01
SYMBOL res -32 272 R90
WINDOW 0 0 56 VBottom 2
WINDOW 3 32 56 VTop 2
SYMATTR InstName R1
SYMATTR Value 169K
SYMBOL res 448 48 R0
SYMATTR InstName R4
SYMATTR Value 316K
SYMBOL res 624 -144 R0
SYMATTR InstName R5
SYMATTR Value 1Meg
SYMBOL ind2 336 -176 M180
WINDOW 0 36 80 Left 2
WINDOW 3 36 40 Left 2
SYMATTR InstName L1
SYMATTR Value 15µ
SYMATTR Type ind
SYMATTR SpiceLine Rser=0.01
SYMBOL ind2 16 -272 R270
WINDOW 0 32 56 VTop 2
WINDOW 3 4 56 VBottom 2
SYMATTR InstName L2
SYMATTR Value 15µ
SYMATTR Type ind
SYMATTR SpiceLine Rser=0.1
SYMBOL voltage -384 -288 R0
WINDOW 123 24 126 Left 2
WINDOW 39 24 111 Left 2
SYMATTR Value 12
SYMATTR InstName V2
SYMBOL res 624 32 R90
WINDOW 0 0 56 VBottom 2
WINDOW 3 32 56 VTop 2
SYMATTR InstName R6
SYMATTR Value 8.87K
SYMBOL polcap -288 -272 R0
WINDOW 3 24 56 Left 2
SYMATTR Value 10µ
SYMATTR InstName C6
SYMATTR Description Capacitor
SYMATTR Type cap
SYMATTR SpiceLine V=63 Rser=0.03 Lser=0
SYMBOL cap -176 -272 R0
SYMATTR InstName C7
SYMATTR Value 2.2µ
SYMATTR SpiceLine V=100 Rser=0.003
SYMBOL cap 960 -272 R0
SYMATTR InstName C8
SYMATTR Value 47µ
SYMBOL cap 720 -32 R0
SYMATTR InstName C9
SYMATTR Value 4.7p
SYMBOL voltage -176 368 R90
WINDOW 123 74 56 VTop 2
WINDOW 39 53 56 VTop 2
WINDOW 3 32 56 VTop 2
WINDOW 0 -32 56 VBottom 2
SYMATTR Value PULSE(0 2 10n 10n 10n 0.5m 1m)
SYMATTR InstName V1
SYMBOL res 784 192 R90
WINDOW 0 0 56 VBottom 2
WINDOW 3 32 56 VTop 2
SYMATTR InstName R2
SYMATTR Value 100K
SYMBOL res 688 272 R90
WINDOW 0 0 56 VBottom 2
WINDOW 3 32 56 VTop 2
SYMATTR InstName R3
SYMATTR Value 100K
SYMBOL res 1056 -288 R0
SYMATTR InstName Rload
SYMATTR Value 5
TEXT 712 392 Left 2 !.tran 10m startup
TEXT 264 -336 Bottom 2 !K1 L1 L2 0.99
TEXT 288 -392 Bottom 2 ;LT8495 - SEPIC/Boost Converter with 2A, 70V Switch, 9µA Quiescent Current, POR and Watchdog Timer\n450kHz, 5V Output SEPIC Converter\nInput: 3V to 60V       Output: 5V @ 1A (load current will decrease if Vin < 12V)
TEXT -368 472 Left 2 ;Note:\n  If the simulation model is not found please update with the "Sync Release" command from the "Tools" menu.\n  It remains the customer's responsibility to verify proper and reliable operation in the actual application.\n  Component substitution and printed circuit board layout may significantly affect circuit performance or reliability.\n  Contact your local sales representative for assistance. This circuit is distributed to customers only for use with LTC parts.\n  Copyright © 2015 Linear Technology Inc. All rights reserved.
