Version 4
SHEET 1 1496 680
WIRE -192 -256 -288 -256
WIRE -112 -256 -192 -256
WIRE -32 -256 -112 -256
WIRE 48 -256 -32 -256
WIRE 192 -256 128 -256
WIRE 256 -256 192 -256
WIRE 432 -256 320 -256
WIRE 528 -256 432 -256
WIRE 640 -256 592 -256
WIRE 688 -256 640 -256
WIRE 784 -256 688 -256
WIRE 880 -256 784 -256
WIRE 944 -256 880 -256
WIRE 1040 -256 944 -256
WIRE 1136 -256 1040 -256
WIRE -288 -240 -288 -256
WIRE -192 -240 -192 -256
WIRE -112 -240 -112 -256
WIRE 432 -240 432 -256
WIRE 944 -240 944 -256
WIRE 1040 -240 1040 -256
WIRE 1136 -240 1136 -256
WIRE -288 -144 -288 -160
WIRE -192 -144 -192 -176
WIRE -112 -144 -112 -176
WIRE 192 -144 192 -256
WIRE 432 -144 432 -160
WIRE 688 -144 688 -256
WIRE 784 -144 784 -256
WIRE 944 -144 944 -176
WIRE 1040 -144 1040 -176
WIRE 1136 -144 1136 -160
WIRE -32 -112 -32 -256
WIRE -16 -112 -32 -112
WIRE 640 -112 640 -256
WIRE 640 -112 400 -112
WIRE 880 -112 880 -256
WIRE -32 -32 -32 -112
WIRE -16 -32 -32 -32
WIRE 688 -32 688 -64
WIRE 688 -32 400 -32
WIRE 784 -32 784 -80
WIRE 784 -32 688 -32
WIRE 688 -16 688 -32
WIRE -96 48 -160 48
WIRE -16 48 -32 48
WIRE 496 48 400 48
WIRE 688 80 688 64
WIRE 496 112 496 48
WIRE 880 112 880 -32
WIRE 880 112 496 112
WIRE -144 128 -160 128
WIRE -16 128 -64 128
WIRE 416 128 400 128
FLAG -288 -144 0
FLAG 432 -144 0
FLAG 944 -144 0
FLAG 1136 -256 OUT
FLAG 688 80 0
FLAG -160 128 0
FLAG -160 48 0
FLAG 416 128 0
FLAG 1136 -144 0
FLAG 1040 -144 0
FLAG -192 -144 0
FLAG -112 -144 0
FLAG -288 -256 IN
SYMBOL res -48 112 R90
WINDOW 0 0 56 VBottom 2
WINDOW 3 32 56 VTop 2
SYMATTR InstName R1
SYMATTR Value 169K
SYMATTR Def_Sub exterior
SYMATTR Description Resistor flagged to be exterior for the purposes of subcircuit extraction
SYMATTR Type xr
SYMBOL cap 928 -240 R0
SYMATTR InstName C5
SYMATTR Value 47µ
SYMATTR Def_Sub exterior
SYMATTR Description Capacitor flagged to be exterior for the purposes of subcircuit extraction
SYMATTR Type xc
SYMBOL schottky 528 -272 M90
WINDOW 0 0 32 VBottom 2
WINDOW 3 32 32 VTop 2
SYMATTR InstName D1
SYMATTR Value MBRS1100
SYMATTR Description Diode
SYMATTR Type diode
SYMBOL res 896 -16 R180
WINDOW 0 -38 72 Left 2
WINDOW 3 -59 36 Left 2
SYMATTR InstName R5
SYMATTR Value 100K
SYMATTR Def_Sub exterior
SYMATTR Description Resistor flagged to be exterior for the purposes of subcircuit extraction
SYMATTR Type xr
SYMBOL LT8494 192 32 R0
SYMATTR InstName U1
SYMBOL cap 768 -144 R0
SYMATTR InstName C2
SYMATTR Value 4.7p
SYMATTR Def_Sub exterior
SYMATTR Description Capacitor flagged to be exterior for the purposes of subcircuit extraction
SYMATTR Type xc
SYMBOL cap -32 32 R90
WINDOW 0 0 32 VBottom 2
WINDOW 3 32 32 VTop 2
SYMATTR InstName C1
SYMATTR Value 47n
SYMBOL cap 320 -272 R90
WINDOW 0 0 32 VBottom 2
WINDOW 3 32 32 VTop 2
SYMATTR InstName C4
SYMATTR Value 2.2µ
SYMATTR SpiceLine Rser=1m
SYMBOL res 672 -160 R0
SYMATTR InstName R2
SYMATTR Value 1Meg
SYMBOL res 672 -32 R0
SYMATTR InstName R3
SYMATTR Value 316K
SYMBOL voltage -288 -256 R0
SYMATTR Value 12
SYMATTR InstName V1
SYMBOL ind2 416 -144 M180
WINDOW 0 36 80 Left 2
WINDOW 3 36 40 Left 2
SYMATTR InstName L1
SYMATTR Value 15µ
SYMATTR Type ind
SYMATTR SpiceLine Rser=1m Rpar=10K
SYMBOL ind2 32 -240 R270
WINDOW 0 32 56 VTop 2
WINDOW 3 4 56 VBottom 2
SYMATTR InstName L2
SYMATTR Value 15µ
SYMATTR Type ind
SYMATTR SpiceLine Ipk=6 Rser=0.1
SYMBOL res 1120 -256 R0
SYMATTR InstName Rload
SYMATTR Value 5
SYMBOL cap 1024 -240 R0
SYMATTR InstName C3
SYMATTR Value 47µ
SYMATTR Def_Sub exterior
SYMATTR Description Capacitor flagged to be exterior for the purposes of subcircuit extraction
SYMATTR Type xc
SYMBOL polcap -208 -240 R0
WINDOW 3 24 56 Left 2
SYMATTR Value 10µ
SYMATTR InstName C6
SYMATTR Description Capacitor
SYMATTR Type cap
SYMATTR SpiceLine V=63 Irms=55m Rser=2.1 Lser=0 mfg="Nichicon" pn="UPR1J100MAH" type="Al electrolytic"
SYMBOL cap -128 -240 R0
SYMATTR InstName C7
SYMATTR Value 2.2µ
SYMATTR SpiceLine V=100
TEXT 296 -160 Bottom 2 !K1 L1 L2 .99
TEXT 976 176 Left 2 !.tran 5m startup
TEXT 432 -320 Bottom 2 ;LT8494 - SEPIC/Boost DC/DC Converter with 2A, 70V Switch, and 7µA Quiescent Current\n450kHz, 5V Output SEPIC Converter\nInput: 3V to 60V       Output: 5V @ 1A (load current will decrease if Vin < 12V)
TEXT -256 208 Left 2 ;Note:\n  If the simulation model is not found please update with the "Sync Release" command from the "Tools" menu.\n  It remains the customer's responsibility to verify proper and reliable operation in the actual application.\n  Component substitution and printed circuit board layout may significantly affect circuit performance or reliability.\n  Contact your local sales representative for assistance. This circuit is distributed to customers only for use with LTC parts.\n  Copyright © 2015 Linear Technology Inc. All rights reserved.
