Version 4
SHEET 1 1344 680
WIRE -176 96 -272 96
WIRE -96 96 -176 96
WIRE 128 96 -96 96
WIRE 176 96 128 96
WIRE 304 96 256 96
WIRE 336 96 304 96
WIRE 448 96 400 96
WIRE 496 96 448 96
WIRE 608 96 496 96
WIRE -272 112 -272 96
WIRE -96 112 -96 96
WIRE 496 112 496 96
WIRE 608 112 608 96
WIRE -176 128 -176 96
WIRE 128 144 128 96
WIRE -272 208 -272 192
WIRE -176 208 -176 192
WIRE -96 208 -96 192
WIRE -16 208 -96 208
WIRE 304 208 304 96
WIRE 304 208 272 208
WIRE 496 208 496 176
WIRE 608 208 608 192
WIRE -96 288 -128 288
WIRE -16 288 -32 288
WIRE 352 288 272 288
WIRE 448 288 448 96
WIRE 448 288 432 288
WIRE -112 368 -128 368
WIRE -16 368 -32 368
WIRE 320 368 272 368
WIRE 400 368 384 368
WIRE 128 448 128 432
FLAG 128 448 0
FLAG 496 208 0
FLAG 400 368 0
FLAG -128 368 0
FLAG -128 288 0
FLAG -272 208 0
FLAG 608 208 0
FLAG -272 96 IN
FLAG 608 96 OUT
FLAG -176 208 0
SYMBOL ind 160 112 R270
WINDOW 0 32 56 VTop 2
WINDOW 3 5 56 VBottom 2
SYMATTR InstName L1
SYMATTR Value 15µ
SYMATTR SpiceLine Rser=50m
SYMBOL schottky 336 112 R270
WINDOW 0 32 32 VTop 2
WINDOW 3 0 39 VBottom 2
SYMATTR InstName D1
SYMATTR Value MBRS130L
SYMATTR Description Diode
SYMATTR Type diode
SYMBOL cap 480 112 R0
SYMATTR InstName C1
SYMATTR Value 4.7µ
SYMATTR SpiceLine Rser=5m
SYMBOL cap 384 352 R90
WINDOW 0 0 32 VBottom 2
WINDOW 3 32 32 VTop 2
WINDOW 39 53 32 VTop 2
WINDOW 40 74 32 VTop 2
SYMATTR InstName C2
SYMATTR Value 3300p
SYMATTR SpiceLine Rser=6.04K
SYMATTR SpiceLine2 Cpar=47p
SYMBOL res -16 352 R90
WINDOW 0 0 56 VBottom 2
WINDOW 3 32 56 VTop 2
SYMATTR InstName R1
SYMATTR Value 56.2K
SYMBOL cap -32 272 R90
WINDOW 0 0 32 VBottom 2
WINDOW 3 32 32 VTop 2
SYMATTR InstName C3
SYMATTR Value .1µ
SYMBOL voltage -272 96 R0
WINDOW 123 0 0 Left 2
WINDOW 39 0 0 Left 2
SYMATTR InstName V1
SYMATTR Value 5
SYMBOL res 448 272 R90
WINDOW 0 0 56 VBottom 2
WINDOW 3 32 56 VTop 2
SYMATTR InstName R2
SYMATTR Value 130K
SYMBOL res 592 96 R0
SYMATTR InstName Rload
SYMATTR Value 60
SYMBOL LT8580 128 288 R0
SYMATTR InstName U1
SYMBOL res -112 96 R0
SYMATTR InstName R3
SYMATTR Value 10K
SYMBOL cap -192 128 R0
SYMATTR InstName C4
SYMATTR Value 4.7µ
SYMATTR SpiceLine Rser=5m
TEXT 472 416 Left 2 !.tran 15m startup
TEXT 192 32 Bottom 2 ;LT8580 - Boost/SEPIC/Inverting DC/DC Converter with 1A, 65V Switch, Soft-Start and Synchronization\n1.5MHz, 5V to 12V Boost Converter\nInput: 3.5V to 6V     Output: 12V @ 200mA, Fsw = 1MHz
TEXT -400 464 Left 2 ;Note:\n  If the simulation model is not found please update with the "Sync Release" command from the "Tools" menu.\n  It remains the customer's responsibility to verify proper and reliable operation in the actual application.\n  Component substitution and printed circuit board layout may significantly affect circuit performance or reliability.\n  Contact your local sales representative for assistance. This circuit is distributed to customers only for use with LTC parts.\n  Copyright © 2015 Linear Technology Inc. All rights reserved.
