Version 4
SHEET 1 1696 1244
WIRE 64 -160 -32 -160
WIRE 160 -160 64 -160
WIRE 208 -160 160 -160
WIRE 336 -160 288 -160
WIRE 496 -160 336 -160
WIRE 528 -160 496 -160
WIRE 624 -160 592 -160
WIRE 720 -160 624 -160
WIRE 816 -160 720 -160
WIRE 896 -160 816 -160
WIRE 1056 -160 992 -160
WIRE 1152 -160 1056 -160
WIRE -32 -144 -32 -160
WIRE 64 -144 64 -160
WIRE 624 -144 624 -160
WIRE 720 -144 720 -160
WIRE 816 -144 816 -160
WIRE 1056 -144 1056 -160
WIRE 1152 -144 1152 -160
WIRE 336 -112 336 -160
WIRE 496 -112 496 -160
WIRE -32 -48 -32 -64
WIRE 64 -48 64 -80
WIRE 160 -48 160 -160
WIRE 272 -48 160 -48
WIRE 624 -48 624 -64
WIRE 624 -48 560 -48
WIRE 720 -48 720 -80
WIRE 1056 -48 1056 -80
WIRE 1152 -48 1152 -64
WIRE 160 48 160 -48
WIRE 176 48 160 48
WIRE 272 48 256 48
WIRE 816 48 816 -64
WIRE 816 48 560 48
WIRE 912 48 912 -112
WIRE 912 48 816 48
WIRE 160 144 160 48
WIRE 176 144 160 144
WIRE 272 144 256 144
WIRE 752 144 560 144
WIRE 848 144 816 144
WIRE 272 240 256 240
WIRE 576 240 560 240
WIRE 672 240 640 240
WIRE 272 336 256 336
WIRE 576 336 560 336
WIRE 672 336 656 336
WIRE 576 432 560 432
WIRE 672 432 656 432
WIRE 256 528 256 336
WIRE 272 528 256 528
WIRE 576 528 560 528
WIRE 672 528 640 528
WIRE 160 624 160 144
WIRE 176 624 160 624
WIRE 272 624 256 624
WIRE 688 624 560 624
WIRE 784 624 752 624
WIRE 160 720 160 624
WIRE 176 720 160 720
WIRE 272 720 256 720
WIRE 160 816 160 720
WIRE 272 816 160 816
WIRE 592 816 560 816
WIRE 704 816 672 816
WIRE 896 816 704 816
WIRE 992 816 896 816
WIRE 704 832 704 816
WIRE 896 832 896 816
WIRE 992 832 992 816
WIRE 416 896 416 880
WIRE 896 928 896 896
WIRE 992 928 992 912
WIRE 160 944 160 816
WIRE 208 944 160 944
WIRE 336 944 336 880
WIRE 336 944 288 944
WIRE 496 944 496 880
WIRE 496 944 336 944
WIRE 576 944 496 944
WIRE 704 944 704 912
WIRE 704 944 640 944
WIRE 752 944 704 944
WIRE 848 944 816 944
FLAG 720 -48 0
FLAG -32 -48 0
FLAG -32 -160 IN
FLAG 416 896 0
FLAG 672 336 0
FLAG 672 240 0
FLAG 848 144 0
FLAG 1056 -48 0
FLAG 1152 -48 0
FLAG 1152 -160 OUT1
FLAG 672 432 0
FLAG 672 528 0
FLAG 784 624 0
FLAG 256 240 0
FLAG 848 944 0
FLAG 896 928 0
FLAG 992 928 0
FLAG 992 816 OUT2
FLAG 64 -48 0
SYMBOL voltage -32 -160 R0
WINDOW 123 0 0 Left 2
WINDOW 39 0 0 Left 2
SYMATTR InstName V1
SYMATTR Value 5
SYMBOL ind 192 -144 R270
WINDOW 0 32 56 VTop 2
WINDOW 3 5 56 VBottom 2
SYMATTR InstName L1
SYMATTR Value 4.7µ
SYMATTR SpiceLine Rser=1.5m
SYMBOL schottky 528 -144 R270
WINDOW 0 32 32 VTop 2
WINDOW 3 0 32 VBottom 2
SYMATTR InstName D1
SYMATTR Value 1N5818
SYMATTR Description Diode
SYMATTR Type diode
SYMBOL cap 704 -144 R0
SYMATTR InstName C1
SYMATTR Value 10µ
SYMATTR SpiceLine Rser=5m
SYMBOL res 608 -160 R0
SYMATTR InstName R1
SYMATTR Value 130K
SYMBOL res 560 352 R270
WINDOW 0 32 56 VTop 2
WINDOW 3 0 56 VBottom 2
SYMATTR InstName R2
SYMATTR Value 53.6K
SYMBOL cap 576 256 R270
WINDOW 0 32 32 VTop 2
WINDOW 3 0 32 VBottom 2
SYMATTR InstName C2
SYMATTR Value .002µ
SYMBOL cap 752 160 R270
WINDOW 0 32 32 VTop 2
WINDOW 3 0 32 VBottom 2
WINDOW 39 -21 32 VBottom 2
SYMATTR InstName C3
SYMATTR Value 4700p
SYMATTR SpiceLine Rser=6.49K Cpar=47p
SYMBOL cap 1040 -144 R0
SYMATTR InstName C4
SYMATTR Value 10µ
SYMATTR SpiceLine V=25 Irms=0 Rser=0.001 Lser=0 mfg="TDK" pn="C575OX7RIE106M" type="X7R"
SYMBOL PowerProducts\\LT8582 416 384 R0
SYMATTR InstName U1
SYMBOL res 160 64 R270
WINDOW 0 32 56 VTop 2
WINDOW 3 0 56 VBottom 2
SYMATTR InstName R3
SYMATTR Value 230K
SYMBOL res 160 160 R270
WINDOW 0 32 56 VTop 2
WINDOW 3 0 56 VBottom 2
SYMATTR InstName R4
SYMATTR Value 100K
SYMBOL pmos 992 -112 M270
WINDOW 0 53 45 VTop 2
WINDOW 3 -11 73 VLeft 2
SYMATTR InstName Q1
SYMATTR Value FDS6575
SYMBOL res 800 -160 R0
WINDOW 3 22 88 Left 2
SYMATTR Value 6.04K
SYMATTR InstName R5
SYMBOL res 560 448 R270
WINDOW 0 32 56 VTop 2
WINDOW 3 0 56 VBottom 2
SYMATTR InstName R6
SYMATTR Value 53.6K
SYMBOL cap 576 544 R270
WINDOW 0 32 32 VTop 2
WINDOW 3 0 32 VBottom 2
SYMATTR InstName C5
SYMATTR Value .002µ
SYMBOL cap 688 640 R270
WINDOW 0 32 32 VTop 2
WINDOW 3 0 32 VBottom 2
WINDOW 39 -21 32 VBottom 2
SYMATTR InstName C6
SYMATTR Value 2200p
SYMATTR SpiceLine Rser=14.7K Cpar=47p
SYMBOL res 160 640 R270
WINDOW 0 32 56 VTop 2
WINDOW 3 0 56 VBottom 2
SYMATTR InstName R7
SYMATTR Value 100K
SYMBOL res 160 736 R270
WINDOW 0 32 56 VTop 2
WINDOW 3 0 56 VBottom 2
SYMATTR InstName R8
SYMATTR Value 230K
SYMBOL ind2 192 960 R270
WINDOW 0 32 56 VTop 2
WINDOW 3 5 56 VBottom 2
SYMATTR InstName L2
SYMATTR Value 4.7µ
SYMATTR SpiceLine Rser=1.5m
SYMATTR Type ind
SYMBOL cap 576 960 R270
WINDOW 0 32 32 VTop 2
WINDOW 3 0 32 VBottom 2
SYMATTR InstName C7
SYMATTR Value 2.2µ
SYMBOL schottky 752 960 R270
WINDOW 0 32 32 VTop 2
WINDOW 3 0 32 VBottom 2
SYMATTR InstName D2
SYMATTR Value 1N5818
SYMATTR Description Diode
SYMATTR Type diode
SYMBOL ind2 688 816 R0
SYMATTR InstName L3
SYMATTR Value 4.7µ
SYMATTR SpiceLine Rser=1.5m
SYMATTR Type ind
SYMBOL res 688 800 R90
WINDOW 0 0 56 VBottom 2
WINDOW 3 32 56 VTop 2
SYMATTR InstName R9
SYMATTR Value 143K
SYMBOL cap 880 832 R0
SYMATTR InstName C8
SYMATTR Value 10µ
SYMATTR SpiceLine V=25 Irms=0 Rser=0.001 Lser=0 mfg="TDK" pn="C575OX7RIE106M" type="X7R"
SYMBOL cap 48 -144 R0
WINDOW 3 37 35 Left 2
WINDOW 39 26 63 Left 2
SYMATTR Value 4.7µ
SYMATTR SpiceLine x2
SYMATTR InstName C9
SYMBOL res 1136 -160 R0
SYMATTR InstName Rload1
SYMATTR Value 21.8
SYMBOL res 976 816 R0
SYMATTR InstName Rload2
SYMATTR Value 21.8
TEXT 1040 976 Left 2 !.tran 1m startup
TEXT 432 968 Center 2 !K1 L2 L3 1
TEXT 624 -208 Bottom 2 ;LT8582 - Dual 3A Boost/Inverting/SEPIC DC/DC Converter with Fault Protection\n1.5MHz +5V to ±12V Dual Converter\nInput: 5V±10%    Output: ±12V @ 550mA (14.4W Max Total Output Power)
TEXT -104 1000 Left 2 ;Note:\n  If the simulation model is not found please update with the "Sync Release" command from the "Tools" menu.\n  It remains the customer's responsibility to verify proper and reliable operation in the actual application.\n  Component substitution and printed circuit board layout may significantly affect circuit performance or reliability.\n  Contact your local sales representative for assistance. This circuit is distributed to customers only for use with LTC parts.\n  Copyright © 2012 Linear Technology Inc. All rights reserved.
TEXT 1152 -184 Bottom 2 ;+12V @ 550mA
TEXT 992 784 Bottom 2 ;-12V @ 550mA
