Version 4
SHEET 1 1424 932
WIRE 0 -64 -96 -64
WIRE 96 -64 0 -64
WIRE 256 -64 96 -64
WIRE -96 -48 -96 -64
WIRE 0 -48 0 -64
WIRE 256 -48 256 -64
WIRE 96 0 96 -64
WIRE 112 0 96 0
WIRE 416 0 400 0
WIRE 496 0 480 0
WIRE -96 48 -96 32
WIRE 0 48 0 16
WIRE 112 96 80 96
WIRE 704 96 400 96
WIRE 112 192 96 192
WIRE 432 192 400 192
WIRE 432 208 432 192
WIRE 432 288 432 272
WIRE 432 288 400 288
WIRE 480 288 432 288
WIRE 576 288 560 288
WIRE 592 288 576 288
WIRE 704 288 704 96
WIRE 704 288 672 288
WIRE 768 288 704 288
WIRE 864 288 768 288
WIRE 768 304 768 288
WIRE 864 304 864 288
WIRE 432 384 400 384
WIRE 768 400 768 368
WIRE 864 400 864 384
WIRE 432 416 432 384
WIRE 576 416 576 288
WIRE 576 416 432 416
WIRE 672 448 672 288
WIRE 672 448 432 448
WIRE 704 464 704 288
WIRE 816 464 704 464
WIRE 32 480 16 480
WIRE 112 480 96 480
WIRE 432 480 432 448
WIRE 432 480 400 480
WIRE 704 480 704 464
WIRE 816 480 816 464
WIRE 112 576 32 576
WIRE 704 576 704 560
WIRE 704 576 400 576
WIRE 816 576 816 544
WIRE 816 576 704 576
WIRE 32 592 32 576
WIRE 704 592 704 576
WIRE 192 640 192 624
WIRE 320 640 320 624
WIRE 32 688 32 672
WIRE 704 688 704 672
FLAG 192 640 0
FLAG 320 640 0
FLAG 32 688 0
FLAG 16 480 0
FLAG -96 48 0
FLAG 496 0 0
FLAG 768 400 0
FLAG 704 688 0
FLAG 864 400 0
FLAG 864 288 OUT
FLAG -96 -64 IN
FLAG 0 48 0
FLAG 80 96 0
SYMBOL res 16 576 R0
SYMATTR InstName R1
SYMATTR Value 60.4K
SYMBOL cap 96 464 R90
WINDOW 0 0 32 VBottom 2
WINDOW 3 32 32 VTop 2
SYMATTR InstName C1
SYMATTR Value .001µ
SYMBOL voltage -96 -64 R0
SYMATTR InstName V1
SYMATTR Value 12
SYMBOL cap 416 16 R270
WINDOW 0 32 32 VTop 2
WINDOW 3 0 32 VBottom 2
SYMATTR InstName C2
SYMATTR Value 1µ
SYMBOL ind 464 304 R270
WINDOW 0 32 56 VTop 2
WINDOW 3 5 56 VBottom 2
SYMATTR InstName L1
SYMATTR Value 4.7µ
SYMATTR SpiceLine Rser=3m
SYMBOL cap 416 208 R0
SYMATTR InstName C3
SYMATTR Value .1µ
SYMBOL cap 752 304 R0
SYMATTR InstName C4
SYMATTR Value 47µ
SYMATTR SpiceLine V=6.3 Irms=0 Rser=0.002 Lser=0 mfg="TDK" pn="C4532X5ROJ47@M" type="X5R"
SYMBOL res 688 464 R0
SYMATTR InstName R2
SYMATTR Value 1Meg
SYMBOL res 688 576 R0
SYMATTR InstName R3
SYMATTR Value 412K
SYMBOL cap 800 480 R0
SYMATTR InstName C5
SYMATTR Value 4.7p
SYMBOL PowerProducts\\LT8611 256 288 R0
SYMATTR InstName U1
SYMBOL res 576 304 R270
WINDOW 0 32 56 VTop 2
WINDOW 3 0 56 VBottom 2
SYMATTR InstName R4
SYMATTR Value 20m
SYMBOL cap -16 -48 R0
SYMATTR InstName C6
SYMATTR Value 4.7µ
SYMBOL res 848 288 R0
SYMATTR InstName Rload
SYMATTR Value 1.5
TEXT 856 656 Left 2 !.tran 1m startup
TEXT 336 -80 Bottom 2 ;LT8611 - 42V, 2.5A Synchronous Step-Down Regulator with Current Sense and 2.5µA Quiescent Current\nµPower Synchronous Step-Down Regulator with Current Sense\nInput: 3.8V to 42V      Output: 3.3V @ 2.5A
TEXT -256 712 Left 2 ;Note:\n  If the simulation model is not found please update with the "Sync Release" command from the "Tools" menu.\n  It remains the customer's responsibility to verify proper and reliable operation in the actual application.\n  Component substitution and printed circuit board layout may significantly affect circuit performance or reliability.\n  Contact your local sales representative for assistance. This circuit is distributed to customers only for use with LTC parts.\n  Copyright © 2012 Linear Technology Inc. All rights reserved.
