Version 4
SHEET 1 2680 984
WIRE -32 -64 -192 -64
WIRE 48 -64 -32 -64
WIRE 256 -64 48 -64
WIRE -192 -48 -192 -64
WIRE -32 -48 -32 -64
WIRE 256 -48 256 -64
WIRE 48 16 48 -64
WIRE 112 16 48 16
WIRE 464 16 400 16
WIRE 48 32 48 16
WIRE 464 32 464 16
WIRE -192 48 -192 32
WIRE -32 48 -32 16
WIRE 48 112 48 96
WIRE 48 112 0 112
WIRE 112 112 48 112
WIRE 464 112 464 96
WIRE 464 112 400 112
WIRE 512 112 464 112
WIRE 32 208 16 208
WIRE 112 208 96 208
WIRE 608 208 400 208
WIRE 112 304 96 304
WIRE 432 304 400 304
WIRE 432 320 432 304
WIRE 432 400 432 384
WIRE 432 400 400 400
WIRE 496 400 432 400
WIRE 608 400 608 208
WIRE 608 400 576 400
WIRE 720 400 608 400
WIRE 816 400 720 400
WIRE 912 400 816 400
WIRE 608 416 608 400
WIRE 720 416 720 400
WIRE 816 416 816 400
WIRE 912 416 912 400
WIRE 32 496 16 496
WIRE 112 496 96 496
WIRE 608 496 400 496
WIRE 720 496 720 480
WIRE 720 496 608 496
WIRE 608 512 608 496
WIRE 816 512 816 480
WIRE 912 512 912 496
WIRE 208 576 208 560
WIRE 304 576 304 560
WIRE 608 608 608 592
WIRE 208 672 208 656
FLAG 304 576 0
FLAG 208 672 0
FLAG 16 208 0
FLAG -192 48 0
FLAG 512 112 0
FLAG 608 608 0
FLAG 912 512 0
FLAG 912 400 OUT
FLAG -192 -64 IN
FLAG -32 48 0
FLAG 0 112 0
FLAG 816 512 0
FLAG 96 304 0
FLAG 16 496 0
SYMBOL res 192 560 R0
SYMATTR InstName R1
SYMATTR Value 18.2K
SYMBOL cap 96 192 R90
WINDOW 0 0 32 VBottom 2
WINDOW 3 32 32 VTop 2
SYMATTR InstName C1
SYMATTR Value 1µ
SYMBOL voltage -192 -64 R0
WINDOW 123 24 126 Left 2
WINDOW 39 24 111 Left 2
SYMATTR Value 12
SYMATTR InstName V1
SYMBOL ind 480 416 R270
WINDOW 0 32 56 VTop 2
WINDOW 3 5 56 VBottom 2
SYMATTR InstName L1
SYMATTR Value 2.2µ
SYMATTR SpiceLine Ipk=3.9 Rser=0.033 Rpar=5905 Cpar=3.85p
SYMBOL cap 416 320 R0
SYMATTR InstName C3
SYMATTR Value .1µ
SYMBOL cap 800 416 R0
SYMATTR InstName C4
SYMATTR Value 47µ
SYMATTR SpiceLine V=10 Irms=0 Rser=0.003 Lser=0
SYMBOL res 592 400 R0
SYMATTR InstName R2
SYMATTR Value 1Meg
SYMBOL res 592 496 R0
SYMATTR InstName R3
SYMATTR Value 243K
SYMBOL cap 704 416 R0
SYMATTR InstName C5
SYMATTR Value 4.7p
SYMBOL cap -48 -48 R0
SYMATTR InstName C6
SYMATTR Value 10µ
SYMBOL LT8614 256 256 R0
SYMATTR InstName U1
SYMBOL cap 32 32 R0
SYMATTR InstName C7
SYMATTR Value 1µ
SYMBOL cap 448 32 R0
WINDOW 0 -20 11 Left 2
WINDOW 3 -17 57 Left 2
SYMATTR InstName C8
SYMATTR Value 1µ
SYMBOL cap 96 480 R90
WINDOW 0 0 32 VBottom 2
WINDOW 3 32 32 VTop 2
SYMATTR InstName C2
SYMATTR Value 1n
SYMBOL res 896 400 R0
SYMATTR InstName Rload
SYMATTR Value 1.25
TEXT 776 568 Left 2 !.tran 1m startup
TEXT 336 -80 Bottom 2 ;LT8614 - 42V, 4A Synchronous Step-Down Silent Switcher with 2.5µA Quiescent Current\nUltralow EMI, µPower Buck Converter\nInput: 5.8V to 42V     Output: 5V @ 4A, Fsw=2MHz
TEXT -280 688 Left 2 ;Note:\n  A smaller SS capacitor is being used to reduce simulation time. See datasheet for typical values.\n  If the simulation model is not found please update with the "Sync Release" command from the "Tools" menu.\n  It remains the customer's responsibility to verify proper and reliable operation in the actual application.\n  Component substitution and printed circuit board layout may significantly affect circuit performance or reliability.\n  Contact your local sales representative for assistance. This circuit is distributed to customers only for use with LTC parts.\n  Copyright © 2014 Linear Technology Inc. All rights reserved.
