Version 4
SHEET 1 2680 1028
WIRE -48 -112 -176 -112
WIRE 48 -112 -48 -112
WIRE 256 -112 48 -112
WIRE 448 -112 256 -112
WIRE -176 -96 -176 -112
WIRE -48 -96 -48 -112
WIRE 256 -96 256 -112
WIRE 48 -32 48 -112
WIRE 112 -32 48 -32
WIRE 448 -32 448 -112
WIRE 448 -32 400 -32
WIRE 48 -16 48 -32
WIRE 448 -16 448 -32
WIRE -176 0 -176 -16
WIRE -48 0 -48 -32
WIRE 48 64 48 48
WIRE 112 64 48 64
WIRE 448 64 448 48
WIRE 448 64 400 64
WIRE 48 80 48 64
WIRE 448 80 448 64
WIRE 32 160 16 160
WIRE 112 160 96 160
WIRE 608 160 400 160
WIRE 112 256 16 256
WIRE 432 256 400 256
WIRE 432 272 432 256
WIRE 0 352 -48 352
WIRE 112 352 80 352
WIRE 432 352 432 336
WIRE 432 352 400 352
WIRE 496 352 432 352
WIRE 608 352 608 160
WIRE 608 352 576 352
WIRE 720 352 608 352
WIRE 784 352 720 352
WIRE 848 352 784 352
WIRE 960 352 848 352
WIRE 608 368 608 352
WIRE 720 368 720 352
WIRE 848 368 848 352
WIRE 960 368 960 352
WIRE 32 448 16 448
WIRE 112 448 96 448
WIRE 608 448 400 448
WIRE 720 448 720 432
WIRE 720 448 608 448
WIRE 608 464 608 448
WIRE 848 464 848 432
WIRE 960 464 960 448
WIRE 208 528 208 512
WIRE 304 544 304 512
WIRE 608 560 608 544
WIRE 208 624 208 608
WIRE -48 656 -48 352
WIRE 784 656 784 352
WIRE 784 656 -48 656
FLAG 208 624 0
FLAG 16 160 0
FLAG -176 0 0
FLAG 608 560 0
FLAG 960 464 0
FLAG 960 352 OUT
FLAG -176 -112 IN
FLAG -48 0 0
FLAG 848 464 0
FLAG 304 544 0
FLAG 16 448 0
FLAG 448 80 0
FLAG 48 80 0
FLAG 16 256 0
SYMBOL res 192 512 R0
SYMATTR InstName R1
SYMATTR Value 18.2K
SYMBOL cap 96 144 R90
WINDOW 0 0 32 VBottom 2
WINDOW 3 32 32 VTop 2
SYMATTR InstName C1
SYMATTR Value 1µ
SYMBOL voltage -176 -112 R0
WINDOW 123 24 126 Left 2
WINDOW 39 24 111 Left 2
SYMATTR Value 12
SYMATTR InstName V1
SYMBOL ind 480 368 R270
WINDOW 0 32 56 VTop 2
WINDOW 3 5 56 VBottom 2
SYMATTR InstName L1
SYMATTR Value 2.2µ
SYMATTR SpiceLine Ipk=14 Rser=0.018 Rpar=0 Cpar=0 mfg="Vishay" pn="IHLP2525CZ01-2R2"
SYMBOL cap 416 272 R0
SYMATTR InstName C3
SYMATTR Value 0.1µ
SYMBOL cap 832 368 R0
SYMATTR InstName C4
SYMATTR Value 100µ
SYMATTR SpiceLine V=10 Irms=0 Rser=0.003 Lser=0
SYMBOL res 592 352 R0
SYMATTR InstName R2
SYMATTR Value 1Meg
SYMBOL res 592 448 R0
SYMATTR InstName R3
SYMATTR Value 191K
SYMBOL cap 704 368 R0
SYMATTR InstName C5
SYMATTR Value 10p
SYMBOL cap -64 -96 R0
SYMATTR InstName C6
SYMATTR Value 4.7µ
SYMBOL cap 32 -16 R0
SYMATTR InstName C7
SYMATTR Value 0.1µ
SYMBOL cap 464 -16 M0
WINDOW 0 -20 11 Left 2
WINDOW 3 -38 56 Left 2
SYMATTR InstName C8
SYMATTR Value 0.1µ
SYMBOL cap 96 432 R90
WINDOW 0 0 32 VBottom 2
WINDOW 3 32 32 VTop 2
SYMATTR InstName C2
SYMATTR Value 1n
SYMBOL res 944 352 R0
SYMATTR InstName Rload
SYMATTR Value 1.4
SYMBOL res 96 336 R90
WINDOW 0 0 56 VBottom 2
WINDOW 3 32 56 VTop 2
SYMATTR InstName R4
SYMATTR Value 100K
SYMBOL LT8641 256 208 R0
SYMATTR InstName U1
TEXT 824 520 Left 2 !.tran 1m startup
TEXT 328 -128 Bottom 2 ;LT8641 - 65V, 3.5A Synchronous Step-Down Silent Switcher with 2.5µA Quiescent Current\n5V 2MHz µPower Ultralow EMI Buck Converter\nInput: 5.5V to 65V     Output: 5V @ 3.5A, Fsw=2MHz
TEXT -224 656 Left 2 ;Note:\n  A smaller SS capacitor is being used to reduce simulation time. See datasheet for typical values.\n  If the simulation model is not found please update with the "Sync Release" command from the "Tools" menu.\n  It remains the customer's responsibility to verify proper and reliable operation in the actual application.\n  Component substitution and printed circuit board layout may significantly affect circuit performance or reliability.\n  Contact your local sales representative for assistance. This circuit is distributed to customers only for use with LTC parts.\n  Copyright © 2016 Linear Technology Inc. All rights reserved.
TEXT 232 624 Left 2 ;(2MHz)
