Version 4
SHEET 1 1932 1276
WIRE -16 -80 -96 -80
WIRE 64 -80 -16 -80
WIRE 256 -80 64 -80
WIRE 432 -80 256 -80
WIRE -96 -64 -96 -80
WIRE 256 -64 256 -80
WIRE 64 0 64 -80
WIRE 112 0 64 0
WIRE 432 0 432 -80
WIRE 432 0 400 0
WIRE 64 16 64 0
WIRE 432 16 432 0
WIRE -96 32 -96 16
WIRE 64 96 64 80
WIRE 112 96 64 96
WIRE 432 96 432 80
WIRE 432 96 400 96
WIRE 64 112 64 96
WIRE 432 112 432 96
WIRE 32 192 16 192
WIRE 112 192 96 192
WIRE 592 192 400 192
WIRE 96 288 96 192
WIRE 112 288 96 288
WIRE 432 288 400 288
WIRE 432 304 432 288
WIRE 432 384 432 368
WIRE 432 384 400 384
WIRE 480 384 432 384
WIRE 592 384 592 192
WIRE 592 384 560 384
WIRE 688 384 592 384
WIRE 688 400 688 384
WIRE 592 416 592 384
WIRE 32 480 16 480
WIRE 112 480 96 480
WIRE 432 480 400 480
WIRE 592 496 592 480
WIRE 208 560 208 544
WIRE 304 560 304 544
WIRE 432 560 432 480
WIRE 688 560 688 464
WIRE 688 560 432 560
WIRE 704 560 688 560
WIRE 784 560 768 560
WIRE 464 624 320 624
WIRE 528 624 464 624
WIRE 848 624 608 624
WIRE 208 656 208 640
WIRE 464 656 464 624
WIRE 688 672 688 560
WIRE -16 704 -16 -80
WIRE 368 704 -16 704
WIRE 368 720 368 704
WIRE 320 736 320 624
WIRE 336 736 320 736
WIRE 464 752 464 720
WIRE 464 752 400 752
WIRE 528 752 464 752
WIRE 640 752 608 752
WIRE 336 768 272 768
WIRE 272 784 272 768
WIRE 688 784 688 768
WIRE 848 784 848 624
WIRE 848 784 688 784
WIRE 368 800 368 784
WIRE 688 800 688 784
WIRE 272 880 272 864
WIRE 688 896 688 880
FLAG 304 560 0
FLAG 208 656 0
FLAG -96 32 0
FLAG 16 192 0
FLAG 592 496 0
FLAG 688 384 OUT
FLAG -96 -80 IN
FLAG 64 112 0
FLAG 432 112 0
FLAG 16 480 0
FLAG 272 880 0
FLAG 784 560 0
FLAG 688 896 0
FLAG 368 800 0
SYMBOL res 192 544 R0
SYMATTR InstName R1
SYMATTR Value 60.4K
SYMBOL voltage -96 -80 R0
WINDOW 123 0 0 Left 2
WINDOW 39 0 0 Left 2
SYMATTR InstName V1
SYMATTR Value 12
SYMBOL cap 96 208 M270
WINDOW 0 32 32 VTop 2
WINDOW 3 0 32 VBottom 2
SYMATTR InstName C2
SYMATTR Value 1µ
SYMBOL ind 464 400 R270
WINDOW 0 32 56 VTop 2
WINDOW 3 5 56 VBottom 2
SYMATTR InstName L1
SYMATTR Value 4.7µ
SYMATTR SpiceLine Rser=10m
SYMBOL cap 416 304 R0
SYMATTR InstName C3
SYMATTR Value .1µ
SYMBOL cap 576 416 R0
SYMATTR InstName C4
SYMATTR Value 100µ
SYMATTR SpiceLine V=6.3 Irms=0 Rser=0.002 Lser=0 mfg="TDK" pn="C575OX5ROJI07M" type="X5R"
SYMBOL PowerProducts\\LT8614 256 240 R0
SYMATTR InstName U1
SYMBOL cap 48 16 R0
SYMATTR InstName C6
SYMATTR Value .1µ
SYMBOL cap 416 16 R0
SYMATTR InstName C7
SYMATTR Value .1µ
SYMBOL cap 96 496 M270
WINDOW 0 32 32 VTop 2
WINDOW 3 0 32 VBottom 2
SYMATTR InstName C1
SYMATTR Value 1n
SYMBOL LED 672 400 R0
WINDOW 123 24 92 Left 2
SYMATTR Value2 n=1
SYMATTR InstName D1
SYMATTR Value PT-121-B
SYMBOL voltage 272 768 R0
WINDOW 123 0 0 Left 2
WINDOW 39 0 0 Left 2
SYMATTR InstName V2
SYMATTR Value PULSE(600m 0 1m 5m)
SYMBOL cap 704 576 R270
WINDOW 0 32 32 VTop 2
WINDOW 3 0 32 VBottom 2
SYMATTR InstName C9
SYMATTR Value 10µ
SYMATTR SpiceLine V=6.3 Irms=0 Rser=0.001 Lser=0 mfg="TDK" pn="C3216X5ROJ106M" type="X5R"
SYMBOL res 672 784 R0
SYMATTR InstName R2
SYMATTR Value 200m
SYMBOL nmos 640 672 R0
SYMATTR InstName M1
SYMATTR Value IRLML6244
SYMBOL Opamps\\LT6015 368 752 R0
SYMATTR InstName U2
SYMBOL res 512 640 R270
WINDOW 0 32 56 VTop 2
WINDOW 3 0 56 VBottom 2
SYMATTR InstName R3
SYMATTR Value 2.2K
SYMBOL cap 448 656 R0
SYMATTR InstName C5
SYMATTR Value 47p
SYMBOL res 624 736 R90
WINDOW 0 0 56 VBottom 2
WINDOW 3 32 56 VTop 2
SYMATTR InstName R4
SYMATTR Value 2.2
TEXT 800 896 Left 2 !.tran 7m startup
TEXT 456 -96 Bottom 2 ;LT8614 - 42V, 4A Synchronous Step-Down Silent Switcher with 2.5µA Quiescent Current\nLT6015 - 3.2MHz, 0.8V/µs Low Power, Over-The-Top Precision Op Amps\nHyrbrid Wide Dimming Ratio Linear LED Current Controller\nInput: 3.4V to 42V     Output: 3A Max
TEXT -208 912 Left 2 ;Notes: \n  If the simulation model is not found please update with the "Sync Release" command from the "Tools" menu.\n  It remains the customer's responsibility to verify proper and reliable operation in the actual application.\n  Component substitution and printed circuit board layout may significantly affect circuit performance or reliability.\n  Contact your local sales representative for assistance. This circuit is distributed to customers only for use with LTC parts.\n  Copyright © 2016 Linear Technology Inc. All rights reserved.
