Version 4
SHEET 1 1564 680
WIRE -272 -64 -368 -64
WIRE -128 -64 -272 -64
WIRE -32 -64 -128 -64
WIRE 80 -64 -32 -64
WIRE 224 -64 176 -64
WIRE 352 -64 224 -64
WIRE 480 -64 352 -64
WIRE 624 -64 480 -64
WIRE 704 -64 624 -64
WIRE 832 -64 704 -64
WIRE -368 -48 -368 -64
WIRE 480 -48 480 -64
WIRE 624 -48 624 -64
WIRE 704 -48 704 -64
WIRE 832 -48 832 -64
WIRE -272 -32 -272 -64
WIRE 352 -32 352 -64
WIRE -368 48 -368 32
WIRE -272 48 -272 32
WIRE 624 48 624 16
WIRE 704 48 704 16
WIRE 832 48 832 32
WIRE -32 64 -32 -64
WIRE 96 64 96 -16
WIRE 224 64 224 -64
WIRE 352 64 352 32
WIRE 480 64 480 32
WIRE -272 144 -272 112
WIRE -128 192 -128 -64
WIRE -96 192 -128 192
WIRE 544 192 528 192
WIRE 224 336 224 320
FLAG 624 48 0
FLAG 704 48 0
FLAG 832 48 0
FLAG 224 336 0
FLAG -272 144 0
FLAG -368 -64 IN
FLAG 832 -64 OUT
FLAG -368 48 0
SYMBOL LT8672 224 192 R0
WINDOW 3 1 47 Center 2
SYMATTR InstName U1
SYMBOL nmos 176 -16 M270
WINDOW 0 83 47 VTop 2
WINDOW 3 56 47 VTop 2
SYMATTR InstName M1
SYMATTR Value IPD038N06N3
SYMBOL cap 336 -32 R0
SYMATTR InstName C1
SYMATTR Value 1µ
SYMBOL ind 464 -64 R0
SYMATTR Value2 Rser=5
SYMATTR InstName L1
SYMATTR Value 100µ
SYMATTR SpiceLine Rser=0.005
SYMBOL cap 608 -48 R0
SYMATTR InstName C2
SYMATTR Value 4.7µ
SYMATTR Value2 Rser=10m
SYMBOL polcap 688 -48 R0
SYMATTR Value 470µ
SYMATTR Value2 Rser=.1
SYMATTR InstName C3
SYMATTR Description Capacitor
SYMATTR Type cap
SYMATTR SpiceLine V=35 Irms=1.42 Rser=0.046 Lser=0 mfg="Nichicon" pn="UPL1V471MPH" type="Al electrolytic"
SYMBOL res 816 -64 R0
SYMATTR InstName Rload
SYMATTR Value 2.4
SYMBOL zener -288 48 R0
WINDOW 0 30 64 Left 2
WINDOW 3 30 92 Left 2
SYMATTR InstName TVS2
SYMATTR Value UMZ15K
SYMBOL zener -288 32 M180
WINDOW 0 37 51 Left 2
WINDOW 3 41 22 Left 2
SYMATTR InstName TVS1
SYMATTR Value UMZ33K
SYMBOL voltage -368 -64 R0
WINDOW 123 0 0 Left 2
WINDOW 39 0 0 Left 2
SYMATTR InstName V1
SYMATTR Value 12
TEXT 600 288 Left 2 !.tran 2m startup
TEXT 216 -128 Bottom 2 ;LT8672 - Active Rctifier Controller with Reverse Protection\n12V, 5A Automotive Reverse Battery Protection\nInput: 12V     Output: 5A
TEXT -424 352 Left 2 ;Note:\nSwitching period of AUXSW is ~40ms at steady state, therefore .trans stop time > 50ms.\nIf the simulation model is not found please update with the "Sync Release" command from the "Tools" menu.\nIt remains the customer's responsibility to verify proper and reliable operation in the actual application.\nComponent substitution and printed circuit board layout may significantly affect circuit performance or reliability.\nContact your local sales representative for assistance. This circuit is distributed to customers only for use with LTC parts.\nCopyright © 2017 Linear Technology Inc. All rights reserved.
