Version 4
SHEET 1 2680 748
WIRE 16 -64 -80 -64
WIRE 96 -64 16 -64
WIRE 256 -64 96 -64
WIRE -80 -48 -80 -64
WIRE 16 -48 16 -64
WIRE 256 -48 256 -64
WIRE 96 0 96 -64
WIRE 112 0 96 0
WIRE 416 0 400 0
WIRE 496 0 480 0
WIRE -80 48 -80 32
WIRE 16 48 16 16
WIRE 112 96 96 96
WIRE 592 96 400 96
WIRE 432 192 400 192
WIRE 432 208 432 192
WIRE 32 288 16 288
WIRE 112 288 96 288
WIRE 432 288 432 272
WIRE 432 288 400 288
WIRE 480 288 432 288
WIRE 592 288 592 96
WIRE 592 288 560 288
WIRE 704 288 592 288
WIRE 800 288 704 288
WIRE 896 288 800 288
WIRE 592 304 592 288
WIRE 704 304 704 288
WIRE 800 304 800 288
WIRE 896 304 896 288
WIRE 112 384 32 384
WIRE 592 384 400 384
WIRE 704 384 704 368
WIRE 704 384 592 384
WIRE 32 400 32 384
WIRE 592 400 592 384
WIRE 800 400 800 368
WIRE 896 400 896 384
WIRE 192 448 192 432
WIRE 320 448 320 432
WIRE 32 496 32 480
WIRE 592 496 592 480
FLAG 192 448 0
FLAG 320 448 0
FLAG 32 496 0
FLAG 16 288 0
FLAG -80 48 0
FLAG 496 0 0
FLAG 592 496 0
FLAG 896 400 0
FLAG 896 288 OUT
FLAG -80 -64 IN
FLAG 16 48 0
FLAG 96 96 0
FLAG 800 400 0
SYMBOL PowerProducts\\LT8610 256 192 R0
SYMATTR InstName U1
SYMBOL res 16 384 R0
SYMATTR InstName R1
SYMATTR Value 60.4K
SYMBOL cap 96 272 R90
WINDOW 0 0 32 VBottom 2
WINDOW 3 32 32 VTop 2
SYMATTR InstName C1
SYMATTR Value .001µ
SYMBOL voltage -80 -64 R0
WINDOW 123 0 0 Left 2
WINDOW 39 24 124 Left 2
SYMATTR InstName V1
SYMATTR Value 12
SYMBOL cap 416 16 R270
WINDOW 0 32 32 VTop 2
WINDOW 3 0 32 VBottom 2
SYMATTR InstName C2
SYMATTR Value 1µ
SYMBOL ind 464 304 R270
WINDOW 0 32 56 VTop 2
WINDOW 3 5 56 VBottom 2
SYMATTR InstName L1
SYMATTR Value 4.7µ
SYMATTR SpiceLine Ipk=3.9 Rser=0.033 Rpar=5905 Cpar=3.85p mfg="Wurth Elektronik" pn="7447789004 WE-PD 7332"
SYMBOL cap 416 208 R0
SYMATTR InstName C3
SYMATTR Value .1µ
SYMBOL cap 784 304 R0
SYMATTR InstName C4
SYMATTR Value 47µ
SYMATTR SpiceLine V=6.3 Irms=0 Rser=0.002 Lser=0 Rpar=1000 Cpar=5p mfg="TDK" pn="C4532X5ROJ47@M" type="X5R"
SYMBOL res 576 288 R0
SYMATTR InstName R2
SYMATTR Value 1Meg
SYMBOL res 576 384 R0
SYMATTR InstName R3
SYMATTR Value 412K
SYMBOL cap 688 304 R0
SYMATTR InstName C5
SYMATTR Value 4.7p
SYMBOL cap 0 -48 R0
SYMATTR InstName C6
SYMATTR Value 4.7µ
SYMBOL res 880 288 R0
SYMATTR InstName Rload
SYMATTR Value 1.5
TEXT 760 456 Left 2 !.tran 1m startup
TEXT 336 -80 Bottom 2 ;LT8610 - 42V, 2.5A Synchronous Step-Down Regulator with 2.5µA Quiescent Current\nµPower Synchronous Step-Down Regulator\nInput: 3.8V to 42V     Output: 3.3V @ 2.5A
TEXT -248 512 Left 2 ;Note:\n  If the simulation model is not found please update with the "Sync Release" command from the "Tools" menu.\n  It remains the customer's responsibility to verify proper and reliable operation in the actual application.\n  Component substitution and printed circuit board layout may significantly affect circuit performance or reliability.\n  Contact your local sales representative for assistance. This circuit is distributed to customers only for use with LTC parts.\n  Copyright © 2012 Linear Technology Inc. All rights reserved.
