Version 4
SHEET 1 2680 748
WIRE 16 -64 -80 -64
WIRE 96 -64 16 -64
WIRE 256 -64 96 -64
WIRE -80 -48 -80 -64
WIRE 16 -48 16 -64
WIRE 256 -48 256 -64
WIRE 96 0 96 -64
WIRE 112 0 96 0
WIRE 416 0 400 0
WIRE 496 0 480 0
WIRE 608 0 592 0
WIRE 912 0 896 0
WIRE 960 0 912 0
WIRE 1056 0 960 0
WIRE 960 16 960 0
WIRE 1056 16 1056 0
WIRE -80 48 -80 32
WIRE 16 48 16 16
WIRE 112 96 96 96
WIRE 592 96 592 0
WIRE 592 96 400 96
WIRE 608 96 592 96
WIRE 912 96 912 0
WIRE 912 96 896 96
WIRE 960 112 960 80
WIRE 1056 112 1056 96
WIRE 112 192 80 192
WIRE 432 192 400 192
WIRE 752 192 752 160
WIRE 432 208 432 192
WIRE 32 288 0 288
WIRE 112 288 96 288
WIRE 432 288 432 272
WIRE 432 288 400 288
WIRE 480 288 432 288
WIRE 592 288 592 96
WIRE 592 288 560 288
WIRE 704 288 592 288
WIRE 800 288 704 288
WIRE 896 288 800 288
WIRE 592 304 592 288
WIRE 704 304 704 288
WIRE 800 304 800 288
WIRE 896 304 896 288
WIRE 16 384 0 384
WIRE 112 384 96 384
WIRE 592 384 400 384
WIRE 704 384 704 368
WIRE 704 384 592 384
WIRE 592 400 592 384
WIRE 800 400 800 368
WIRE 896 400 896 384
WIRE 192 448 192 432
WIRE 320 448 320 432
WIRE 592 496 592 480
FLAG 192 448 0
FLAG 320 448 0
FLAG 0 384 0
FLAG 0 288 0
FLAG -80 48 0
FLAG 496 0 0
FLAG 592 496 0
FLAG 896 400 0
FLAG 896 288 OUT1
FLAG -80 -64 IN
FLAG 16 48 0
FLAG 96 96 0
FLAG 800 400 0
FLAG 1056 112 0
FLAG 1056 0 OUT2
FLAG 960 112 0
FLAG 752 192 0
SYMBOL PowerProducts\\LT8610 256 192 R0
SYMATTR InstName U1
SYMBOL res 112 368 R90
WINDOW 0 0 56 VBottom 2
WINDOW 3 32 56 VTop 2
SYMATTR InstName R1
SYMATTR Value 18.2K
SYMBOL cap 96 272 R90
WINDOW 0 0 32 VBottom 2
WINDOW 3 32 32 VTop 2
SYMATTR InstName C1
SYMATTR Value .001µ
SYMATTR SpiceLine ""
SYMBOL voltage -80 -64 R0
WINDOW 123 0 0 Left 2
WINDOW 39 24 124 Left 2
SYMATTR Value2 ""
SYMATTR SpiceLine ""
SYMATTR InstName V1
SYMATTR Value 12
SYMBOL cap 416 16 R270
WINDOW 0 32 32 VTop 2
WINDOW 3 0 32 VBottom 2
SYMATTR InstName C2
SYMATTR Value 1µ
SYMBOL ind 464 304 R270
WINDOW 0 32 56 VTop 2
WINDOW 3 5 56 VBottom 2
SYMATTR InstName L1
SYMATTR Value 1.8µ
SYMATTR SpiceLine Ipk=3.9 Rser=0.033 Rpar=5905 Cpar=3.85p mfg="Wurth Elektronik" pn="7447789004 WE-PD 7332"
SYMBOL cap 416 208 R0
SYMATTR InstName C3
SYMATTR Value .1µ
SYMBOL cap 784 304 R0
SYMATTR InstName C4
SYMATTR Value 47µ
SYMATTR SpiceLine V=6.3 Irms=0 Rser=0.002 Lser=0 Rpar=1000 Cpar=5p mfg="TDK" pn="C4532X5ROJ47@M" type="X5R"
SYMBOL res 576 288 R0
SYMATTR InstName R2
SYMATTR Value 1Meg
SYMBOL res 576 384 R0
SYMATTR InstName R3
SYMATTR Value 412K
SYMBOL cap 688 304 R0
SYMATTR InstName C5
SYMATTR Value 4.7p
SYMBOL cap 0 -48 R0
SYMATTR InstName C6
SYMATTR Value 4.7µ
SYMBOL res 880 288 R0
SYMATTR InstName Rload1
SYMATTR Value 1.5
SYMBOL PowerProducts\\LT3008-2.5 752 48 R0
SYMATTR InstName U2
SYMBOL cap 944 16 R0
SYMATTR InstName C7
SYMATTR Value 47µ
SYMATTR SpiceLine V=6.3 Irms=0 Rser=0.002 Lser=0 Rpar=1000 Cpar=5p mfg="TDK" pn="C4532X5ROJ47@M" type="X5R"
SYMBOL res 1040 0 R0
SYMATTR InstName Rload2
SYMATTR Value 125
TEXT 760 456 Left 2 !.tran 5m startup
TEXT 496 -80 Bottom 2 ;LT8610 - 42V, 2.5A Synchronous Step-Down Regulator with 2.5µA Quiescent Current\nLT3008-2.5- 3µA Iq, 20mA, 45V Low Dropout Linear Regulators\nUltralow Iq 2.5V, 3.3V Step-Down with LDO\nInput: 3.8V to 27V     Output1: 3.3V @ 2.5A, Fsw=2MHz     Output2: 2.5 @ 20mA
TEXT -144 512 Left 2 ;Note:\n  A smaller value TR/SS capacitor is used to reduce simulation time. Typical value should be 10nF.\n  If the simulation model is not found please update with the "Sync Release" command from the "Tools" menu.\n  It remains the customer's responsibility to verify proper and reliable operation in the actual application.\n  Component substitution and printed circuit board layout may significantly affect circuit performance or reliability.\n  Contact your local sales representative for assistance. This circuit is distributed to customers only for use with LTC parts.\n  Copyright © 2012 Linear Technology Inc. All rights reserved.
