Version 4
SHEET 1 1192 784
WIRE -160 -32 -256 -32
WIRE -64 -32 -160 -32
WIRE 16 -32 -64 -32
WIRE 176 -32 16 -32
WIRE -256 -16 -256 -32
WIRE -160 -16 -160 -32
WIRE -64 -16 -64 -32
WIRE 176 -16 176 -32
WIRE 16 48 16 -32
WIRE 32 48 16 48
WIRE 368 48 320 48
WIRE 368 64 368 48
WIRE -256 80 -256 64
WIRE -160 80 -160 48
WIRE -64 80 -64 48
WIRE -80 144 -112 144
WIRE 32 144 0 144
WIRE 368 144 368 128
WIRE 368 144 320 144
WIRE -64 240 -80 240
WIRE 32 240 0 240
WIRE 368 240 368 224
WIRE 368 240 320 240
WIRE -64 336 -80 336
WIRE 32 336 0 336
WIRE 352 336 320 336
WIRE 448 336 352 336
WIRE 544 336 448 336
WIRE 592 336 544 336
WIRE 688 336 592 336
WIRE 352 352 352 336
WIRE 592 352 592 336
WIRE 688 352 688 336
WIRE -64 432 -80 432
WIRE 32 432 16 432
WIRE 352 432 352 416
WIRE 352 432 320 432
WIRE 448 432 448 416
WIRE 448 432 352 432
WIRE 448 448 448 432
WIRE 592 448 592 416
WIRE 688 448 688 432
WIRE 176 512 176 496
WIRE 448 544 448 528
WIRE -112 576 -112 144
WIRE 544 576 544 336
WIRE 544 576 -112 576
FLAG 176 512 0
FLAG -256 80 0
FLAG 448 544 0
FLAG 592 448 0
FLAG -80 432 0
FLAG -80 336 0
FLAG -80 240 0
FLAG -256 -32 IN
FLAG 688 336 OUT
FLAG 688 448 0
FLAG -64 80 0
FLAG -160 80 0
SYMBOL voltage -256 -32 R0
WINDOW 123 0 0 Left 2
WINDOW 39 0 0 Left 2
SYMATTR InstName V1
SYMATTR Value 48
SYMBOL cap 352 64 R0
SYMATTR InstName C1
SYMATTR Value .1µ
SYMBOL ind 352 128 R0
SYMATTR InstName L1
SYMATTR Value 22µ
SYMBOL res 432 320 R0
SYMATTR InstName R1
SYMATTR Value 1Meg
SYMBOL cap 336 352 R0
SYMATTR InstName C2
SYMATTR Value 10p
SYMBOL res 432 432 R0
SYMATTR InstName R2
SYMATTR Value 71.5K
SYMBOL cap 576 352 R0
SYMATTR InstName C3
SYMATTR Value 47µ
SYMBOL res 32 416 R90
WINDOW 0 0 56 VBottom 2
WINDOW 3 32 56 VTop 2
SYMATTR InstName R3
SYMATTR Value 8.66K
SYMBOL cap 0 320 R90
WINDOW 0 0 32 VBottom 2
WINDOW 3 32 32 VTop 2
SYMATTR InstName C4
SYMATTR Value .005µ
SYMBOL cap 0 224 R90
WINDOW 0 0 32 VBottom 2
WINDOW 3 32 32 VTop 2
SYMATTR InstName C5
SYMATTR Value 2.2µ
SYMBOL PowerProducts\\LT8630 176 240 R0
SYMATTR InstName U1
SYMBOL cap -80 -16 R0
SYMATTR InstName C6
SYMATTR Value 2.2µ
SYMBOL res 16 128 R90
WINDOW 0 0 56 VBottom 2
WINDOW 3 32 56 VTop 2
SYMATTR InstName R5
SYMATTR Value 51.1K
SYMBOL res 672 336 R0
SYMATTR InstName R4
SYMATTR Value 20
SYMBOL cap -176 -16 R0
SYMATTR InstName C7
SYMATTR Value 10µ
TEXT 616 528 Left 2 !.tran 2m startup
TEXT -392 576 Left 2 ;Note:\n  A smaller SS capacitor is being used to reduce simulation time. See datasheet for typical values. \n  If the simulation model is not found please update with the "Sync Release" command from the "Tools" menu.\n  It remains the customer's responsibility to verify proper and reliable operation in the actual application.\n  Component substitution and printed circuit board layout may significantly affect circuit performance or reliability.\n  Contact your local sales representative for assistance. This circuit is distributed to customers only for use with LTC parts.\n  Copyright © 2017 Linear Technology Inc. All rights reserved.
TEXT 176 -56 Bottom 2 ;LT8630 - 100V, 0.6A Synchronous Micropower Step-Down Regulator\nHigh Efficiency µPower Buck Regulator\nInput: 13V to 100V     Output: 12V @ 0.6A
