Version 4
SHEET 1 1240 868
WIRE 32 -256 -64 -256
WIRE 112 -256 32 -256
WIRE 208 -256 112 -256
WIRE 336 -256 208 -256
WIRE 448 -256 336 -256
WIRE 464 -256 448 -256
WIRE 544 -256 528 -256
WIRE -64 -240 -64 -256
WIRE 32 -240 32 -256
WIRE 208 -240 208 -256
WIRE 336 -240 336 -256
WIRE 112 -176 112 -256
WIRE 128 -176 112 -176
WIRE 448 -176 448 -256
WIRE 448 -176 416 -176
WIRE -64 -144 -64 -160
WIRE 32 -144 32 -176
WIRE -368 16 -496 16
WIRE -288 16 -368 16
WIRE -208 16 -288 16
WIRE -112 16 -208 16
WIRE -32 16 -112 16
WIRE 128 16 48 16
WIRE 480 16 416 16
WIRE 624 16 560 16
WIRE 720 16 624 16
WIRE 816 16 720 16
WIRE 912 16 816 16
WIRE 1008 16 912 16
WIRE -496 32 -496 16
WIRE -368 32 -368 16
WIRE -288 32 -288 16
WIRE -208 32 -208 16
WIRE -112 32 -112 16
WIRE 624 32 624 16
WIRE 720 32 720 16
WIRE 816 32 816 16
WIRE 912 32 912 16
WIRE 1008 32 1008 16
WIRE -208 112 -208 96
WIRE -112 112 -208 112
WIRE 128 112 -112 112
WIRE 624 112 416 112
WIRE 720 112 720 96
WIRE 720 112 624 112
WIRE -496 128 -496 112
WIRE -368 128 -368 96
WIRE -288 128 -288 96
WIRE -112 128 -112 112
WIRE 624 128 624 112
WIRE 816 128 816 96
WIRE 912 128 912 96
WIRE 1008 128 1008 112
WIRE 128 208 -16 208
WIRE 544 208 416 208
WIRE -112 224 -112 208
WIRE 624 224 624 208
WIRE 48 304 32 304
WIRE 128 304 112 304
WIRE 432 304 416 304
WIRE 512 304 496 304
WIRE 128 400 112 400
WIRE 544 400 544 208
WIRE 544 400 416 400
WIRE 560 400 544 400
WIRE 640 400 624 400
WIRE 32 592 16 592
WIRE 128 592 112 592
WIRE 432 592 416 592
WIRE 336 656 336 640
WIRE -16 688 -16 208
WIRE 544 688 544 400
WIRE 544 688 -16 688
FLAG -64 -144 0
FLAG 32 304 0
FLAG 16 592 0
FLAG 336 656 0
FLAG 624 224 0
FLAG 1008 128 0
FLAG 512 304 0
FLAG 1008 16 OUT2
FLAG -64 -256 IN
FLAG 640 400 0
FLAG 544 -256 0
FLAG 32 -144 0
FLAG 816 128 0
FLAG 912 128 0
FLAG -112 224 0
FLAG -496 128 0
FLAG -496 16 OUT1
FLAG -288 128 0
FLAG -368 128 0
FLAG 432 592 0
SYMBOL voltage -64 -256 R0
WINDOW 123 0 0 Left 2
WINDOW 39 0 0 Left 2
WINDOW 3 23 88 Left 2
SYMATTR Value 12
SYMATTR InstName V1
SYMBOL cap 112 288 R90
WINDOW 0 0 32 VBottom 2
WINDOW 3 32 32 VTop 2
SYMATTR InstName C11
SYMATTR Value 1n
SYMBOL res 128 576 R90
WINDOW 0 0 56 VBottom 2
WINDOW 3 32 56 VTop 2
SYMATTR InstName R5
SYMATTR Value 15K
SYMBOL ind 464 32 R270
WINDOW 0 32 56 VTop 2
WINDOW 3 5 56 VBottom 2
SYMATTR InstName L2
SYMATTR Value 1µ
SYMATTR Value2 Rser=10m
SYMATTR SpiceLine Ipk=6.5 Rser=0.0042 Cpar=0
SYMBOL res 608 112 R0
SYMATTR InstName R4
SYMATTR Value 316K
SYMBOL cap 432 288 M90
WINDOW 0 0 32 VBottom 2
WINDOW 3 32 32 VTop 2
SYMATTR InstName C12
SYMATTR Value 1n
SYMBOL cap 560 384 M90
WINDOW 0 0 32 VBottom 2
WINDOW 3 32 32 VTop 2
SYMATTR InstName C13
SYMATTR Value 1µ
SYMBOL res 992 16 R0
SYMATTR InstName Rload2
SYMATTR Value 0.825
SYMBOL cap 464 -240 R270
WINDOW 0 32 32 VTop 2
WINDOW 3 0 32 VBottom 2
SYMATTR InstName C2
SYMATTR Value 10µ
SYMATTR SpiceLine V=50
SYMBOL cap 16 -240 R0
SYMATTR InstName C1
SYMATTR Value 10µ
SYMATTR SpiceLine V=50
SYMBOL res 608 16 R0
SYMATTR InstName R3
SYMATTR Value 1Meg
SYMBOL cap 704 32 R0
SYMATTR InstName C7
SYMATTR Value 4.7p
SYMBOL ind 64 32 M270
WINDOW 0 32 56 VTop 2
WINDOW 3 5 56 VBottom 2
SYMATTR InstName L1
SYMATTR Value 1µ
SYMATTR Value2 Rser=10m
SYMATTR SpiceLine Ipk=6.5 Rser=0.0042 Cpar=0
SYMBOL res -128 112 R0
SYMATTR InstName R2
SYMATTR Value 191K
SYMBOL res -512 16 R0
SYMATTR InstName Rload1
SYMATTR Value 1.25
SYMBOL res -128 16 R0
SYMATTR InstName R1
SYMATTR Value 1Meg
SYMBOL cap -224 32 R0
SYMATTR InstName C6
SYMATTR Value 4.7p
SYMBOL cap 800 32 R0
SYMATTR InstName C8
SYMATTR Value 47µ
SYMATTR SpiceLine V=10 Irms=11.7 Rser=10m
SYMBOL cap 896 32 R0
SYMATTR InstName C9
SYMATTR Value 47µ
SYMATTR SpiceLine V=10 Irms=11.7 Rser=10m
SYMBOL cap -304 32 R0
SYMATTR InstName C5
SYMATTR Value 47µ
SYMATTR SpiceLine V=10 Irms=11.7 Rser=0.003
SYMBOL cap -384 32 R0
SYMATTR InstName C4
SYMATTR Value 47µ
SYMATTR SpiceLine V=10 Irms=11.7 Rser=0.003 Lser=0
SYMBOL PowerProducts\\LT8650S 272 192 R0
SYMATTR InstName U1
TEXT 72 544 Bottom 2 ;fsw=2MHz
TEXT 240 -360 Center 2 ;LT8650S - Dual Channel 42V, 4A Synchronous Step-Down Silent Switcher 2 with 6.2µA Quiescent Current\n 2MHz Step-Down Converter\nInput: 5.4V to 42V     Output: 5V @ 4A & 3.3V @ 4A
TEXT -312 680 Left 2 ;Note:\n  If the simulation model is not found please update with the "Sync Release" command from the "Tools" menu.\n  It remains the customer's responsibility to verify proper and reliable operation in the actual application.\n  Component substitution and printed circuit board layout may significantly affect circuit performance or reliability.\n  Contact your local sales representative for assistance. This circuit is distributed to customers only for use with LTC parts.\n  Copyright © 2017 Linear Technology Inc. All rights reserved.
TEXT 584 656 Left 2 !.tran 0.6m startup
TEXT -496 -8 Bottom 2 ;5V/4A
TEXT 1008 -8 Bottom 2 ;3.3V/4A
