Version 4
SHEET 1 2680 748
WIRE 16 -64 -80 -64
WIRE 96 -64 16 -64
WIRE 256 -64 96 -64
WIRE -80 -48 -80 -64
WIRE 256 -48 256 -64
WIRE 16 -32 16 -64
WIRE 96 0 96 -64
WIRE 112 0 96 0
WIRE 416 0 400 0
WIRE 496 0 480 0
WIRE -80 48 -80 32
WIRE 16 48 16 32
WIRE 112 96 96 96
WIRE 608 96 400 96
WIRE 432 192 400 192
WIRE 432 208 432 192
WIRE 32 288 16 288
WIRE 112 288 96 288
WIRE 432 288 432 272
WIRE 432 288 400 288
WIRE 496 288 432 288
WIRE 608 288 608 96
WIRE 608 288 576 288
WIRE 720 288 608 288
WIRE 816 288 720 288
WIRE 896 288 816 288
WIRE 976 288 896 288
WIRE 608 304 608 288
WIRE 720 304 720 288
WIRE 816 304 816 288
WIRE 896 304 896 288
WIRE 976 304 976 288
WIRE 16 384 0 384
WIRE 112 384 96 384
WIRE 608 384 400 384
WIRE 720 384 720 368
WIRE 720 384 608 384
WIRE 608 400 608 384
WIRE 816 400 816 368
WIRE 896 400 896 368
WIRE 976 400 976 384
WIRE 192 448 192 432
WIRE 320 448 320 432
WIRE 608 496 608 480
FLAG 192 448 0
FLAG 320 448 0
FLAG 0 384 0
FLAG 16 288 0
FLAG -80 48 0
FLAG 496 0 0
FLAG 608 496 0
FLAG 976 400 0
FLAG 976 288 OUT
FLAG -80 -64 IN
FLAG 16 48 0
FLAG 96 96 0
FLAG 816 400 0
FLAG 896 400 0
SYMBOL res 112 368 R90
WINDOW 0 0 56 VBottom 2
WINDOW 3 32 56 VTop 2
SYMATTR InstName R1
SYMATTR Value 18.2K
SYMBOL cap 96 272 R90
WINDOW 0 0 32 VBottom 2
WINDOW 3 32 32 VTop 2
SYMATTR InstName C1
SYMATTR Value .001µ
SYMBOL voltage -80 -64 R0
WINDOW 123 0 0 Left 2
WINDOW 39 24 124 Left 2
SYMATTR InstName V1
SYMATTR Value 12
SYMBOL cap 416 16 R270
WINDOW 0 32 32 VTop 2
WINDOW 3 0 32 VBottom 2
SYMATTR InstName C2
SYMATTR Value 1µ
SYMBOL ind 480 304 R270
WINDOW 0 32 56 VTop 2
WINDOW 3 5 56 VBottom 2
SYMATTR InstName L1
SYMATTR Value 2.2µ
SYMATTR SpiceLine Ipk=12.9 Rser=0.0132 Rpar=207.24 Cpar=0 mfg="Coilcraft" pn="XAL5030-222"
SYMBOL cap 416 208 R0
SYMATTR InstName C3
SYMATTR Value 0.1µ
SYMBOL cap 800 304 R0
SYMATTR InstName C4
SYMATTR Value 47µ
SYMATTR SpiceLine V=6.3 Irms=0 Rser=0.002 Lser=0 Rpar=1000 Cpar=5p mfg="TDK" pn="C4532X5ROJ47@M" type="X5R"
SYMBOL res 592 288 R0
SYMATTR InstName R2
SYMATTR Value 1Meg
SYMBOL res 592 384 R0
SYMATTR InstName R3
SYMATTR Value 191K
SYMBOL cap 704 304 R0
SYMATTR InstName C5
SYMATTR Value 10p
SYMBOL cap 0 -32 R0
SYMATTR InstName C6
SYMATTR Value 4.7µ
SYMATTR SpiceLine V=50
SYMBOL res 960 288 R0
SYMATTR InstName Rload
SYMATTR Value 1.43
SYMBOL cap 880 304 R0
SYMATTR InstName C7
SYMATTR Value 47µ
SYMATTR SpiceLine V=6.3 Irms=0 Rser=0.002 Lser=0 Rpar=1000 Cpar=5p mfg="TDK" pn="C4532X5ROJ47@M" type="X5R"
SYMBOL LT8610AC 256 192 R0
SYMATTR InstName U1
TEXT 832 464 Left 2 !.tran 1m startup
TEXT 464 -88 Bottom 2 ;LT8610AC - 42V, 2MHz, 3.5A µPower Synchronous Monolythic Step-Down Regulator\n5V 3.5A 2MHz Step-Down Converter\nInput: 5.5V to 42V       Output: 5V @ 3.5A
TEXT -168 520 Left 2 ;Note:\n  If the simulation model is not found please update with the "Sync Release" command from the "Tools" menu.\n  It remains the customer's responsibility to verify proper and reliable operation in the actual application.\n  Component substitution and printed circuit board layout may significantly affect circuit performance or reliability.\n  Contact your local sales representative for assistance. This circuit is distributed to customers only for use with LTC parts.\n  Copyright © 2015 Linear Technology Inc. All rights reserved.
TEXT 56 440 Top 2 ;(2MHz)
