Version 4
SHEET 1 2680 748
WIRE 16 -64 -80 -64
WIRE 96 -64 16 -64
WIRE 256 -64 96 -64
WIRE 256 -48 256 -64
WIRE -80 -32 -80 -64
WIRE 16 -32 16 -64
WIRE 96 0 96 -64
WIRE 112 0 96 0
WIRE 416 0 400 0
WIRE 496 0 480 0
WIRE -80 64 -80 48
WIRE 16 64 16 32
WIRE 112 96 96 96
WIRE 624 96 400 96
WIRE 432 192 400 192
WIRE 432 208 432 192
WIRE 32 288 16 288
WIRE 112 288 96 288
WIRE 432 288 432 272
WIRE 432 288 400 288
WIRE 512 288 432 288
WIRE 624 288 624 96
WIRE 624 288 592 288
WIRE 736 288 624 288
WIRE 832 288 736 288
WIRE 928 288 832 288
WIRE 624 304 624 288
WIRE 736 304 736 288
WIRE 832 304 832 288
WIRE 928 304 928 288
WIRE 112 384 32 384
WIRE 624 384 400 384
WIRE 736 384 736 368
WIRE 736 384 624 384
WIRE 32 400 32 384
WIRE 624 400 624 384
WIRE 832 400 832 368
WIRE 928 400 928 384
WIRE 256 464 256 432
WIRE 32 496 32 480
WIRE 624 496 624 480
FLAG 32 496 0
FLAG 16 288 0
FLAG -80 64 0
FLAG 496 0 0
FLAG 624 496 0
FLAG 928 400 0
FLAG 928 288 OUT
FLAG -80 -64 IN
FLAG 16 64 0
FLAG 96 96 0
FLAG 832 400 0
FLAG 256 464 0
SYMBOL res 16 384 R0
SYMATTR InstName R1
SYMATTR Value 18.2K
SYMBOL cap 96 272 R90
WINDOW 0 0 32 VBottom 2
WINDOW 3 32 32 VTop 2
SYMATTR InstName C1
SYMATTR Value .001µ
SYMBOL voltage -80 -48 R0
WINDOW 123 0 0 Left 2
WINDOW 39 24 124 Left 2
SYMATTR InstName V1
SYMATTR Value 12
SYMBOL cap 416 16 R270
WINDOW 0 32 32 VTop 2
WINDOW 3 0 32 VBottom 2
SYMATTR InstName C2
SYMATTR Value 1µ
SYMBOL ind 496 304 R270
WINDOW 0 32 56 VTop 2
WINDOW 3 5 56 VBottom 2
SYMATTR InstName L1
SYMATTR Value 2.2µ
SYMATTR SpiceLine Ipk=5.6 Rser=0.0352 Rpar=207.24 Cpar=0 mfg="Coilcraft" pn="XAL4020-222"
SYMBOL cap 416 208 R0
SYMATTR InstName C3
SYMATTR Value 0.1µ
SYMBOL cap 816 304 R0
SYMATTR InstName C4
SYMATTR Value 47µ
SYMATTR SpiceLine V=10 Irms=0 Rser=0.002 Lser=0 Rpar=1000 Cpar=5p
SYMBOL res 608 288 R0
SYMATTR InstName R2
SYMATTR Value 1Meg
SYMBOL res 608 384 R0
SYMATTR InstName R3
SYMATTR Value 243K
SYMBOL cap 720 304 R0
SYMATTR InstName C5
SYMATTR Value 10p
SYMBOL cap 0 -32 R0
SYMATTR InstName C6
SYMATTR Value 4.7µ
SYMATTR SpiceLine V=100
SYMBOL res 912 288 R0
SYMATTR InstName Rload
SYMATTR Value 2.5
SYMBOL LT8620 256 192 R0
SYMATTR InstName U1
TEXT 760 472 Left 2 !.tran 1m startup
TEXT 264 -88 Bottom 2 ;LT8620 - 65V, 2A µPower Synchronous Step-Down Regulator with 2.5µA Quiescent Current\n5V 2MHz Step-Down Converter\nInput: 5.5V to 65V       Output: 5V @ 2A, Fsw = 2MHz
TEXT -200 520 Left 2 ;Note:\n  If the simulation model is not found please update with the "Sync Release" command from the "Tools" menu.\n  It remains the customer's responsibility to verify proper and reliable operation in the actual application.\n  Component substitution and printed circuit board layout may significantly affect circuit performance or reliability.\n  Contact your local sales representative for assistance. This circuit is distributed to customers only for use with LTC parts.\n  Copyright © 2014 Linear Technology Inc. All rights reserved.
TEXT 56 496 Left 2 ;(2MHz)
