Version 4
SHEET 1 1496 932
WIRE 96 -176 0 -176
WIRE 112 -176 96 -176
WIRE 432 -176 400 -176
WIRE 0 -160 0 -176
WIRE 432 -160 432 -176
WIRE 96 -80 96 -176
WIRE 112 -80 96 -80
WIRE 432 -80 432 -96
WIRE 432 -80 400 -80
WIRE 480 -80 432 -80
WIRE 608 -80 560 -80
WIRE 720 -80 608 -80
WIRE 784 -80 720 -80
WIRE 816 -80 784 -80
WIRE 912 -80 816 -80
WIRE 0 -64 0 -80
WIRE 720 -64 720 -80
WIRE 816 -64 816 -80
WIRE 912 -64 912 -80
WIRE 96 16 96 -80
WIRE 112 16 96 16
WIRE 608 16 608 0
WIRE 608 16 400 16
WIRE 720 16 720 0
WIRE 720 16 608 16
WIRE 608 32 608 16
WIRE 816 32 816 0
WIRE 912 32 912 16
WIRE 96 112 96 16
WIRE 112 112 96 112
WIRE 432 112 400 112
WIRE 544 112 512 112
WIRE 608 128 608 112
WIRE 544 160 544 112
WIRE 784 160 784 -80
WIRE 784 160 544 160
WIRE 16 208 0 208
WIRE 112 208 80 208
WIRE 720 208 400 208
WIRE 16 304 0 304
WIRE 112 304 80 304
WIRE 464 304 400 304
WIRE 608 304 544 304
WIRE 16 400 0 400
WIRE 112 400 80 400
WIRE 432 400 400 400
WIRE 432 416 432 400
WIRE 112 496 0 496
WIRE 432 496 432 480
WIRE 432 496 400 496
WIRE 480 496 432 496
WIRE 608 496 608 304
WIRE 608 496 560 496
WIRE 720 496 720 208
WIRE 720 496 608 496
WIRE 816 496 720 496
WIRE 912 496 816 496
WIRE 720 512 720 496
WIRE 816 512 816 496
WIRE 912 512 912 496
WIRE 16 592 0 592
WIRE 112 592 96 592
WIRE 608 592 608 576
WIRE 608 592 400 592
WIRE 720 592 720 576
WIRE 720 592 608 592
WIRE 608 608 608 592
WIRE 816 608 816 576
WIRE 912 608 912 592
WIRE 256 656 256 640
WIRE 608 704 608 688
FLAG 256 656 0
FLAG 0 -64 0
FLAG 0 208 0
FLAG 0 304 0
FLAG 0 400 0
FLAG 0 592 0
FLAG 608 128 0
FLAG 912 32 0
FLAG 816 32 0
FLAG 0 -176 IN
FLAG 912 -80 OUT1
FLAG 608 704 0
FLAG 912 608 0
FLAG 816 608 0
FLAG 912 496 OUT2
FLAG 0 496 0
SYMBOL LT8616 256 208 R0
SYMATTR InstName U1
SYMBOL voltage 0 -176 R0
SYMATTR InstName V1
SYMATTR Value 12
SYMBOL cap 80 192 R90
WINDOW 0 0 32 VBottom 2
WINDOW 3 32 32 VTop 2
SYMATTR InstName C1
SYMATTR Value 1µ
SYMBOL cap 80 288 R90
WINDOW 0 0 32 VBottom 2
WINDOW 3 32 32 VTop 2
SYMATTR InstName C2
SYMATTR Value .001µ
SYMBOL cap 80 384 R90
WINDOW 0 0 32 VBottom 2
WINDOW 3 32 32 VTop 2
SYMATTR InstName C3
SYMATTR Value .001µ
SYMBOL res 112 576 R90
WINDOW 0 0 56 VBottom 2
WINDOW 3 32 56 VTop 2
SYMATTR InstName R1
SYMATTR Value 14.7K
SYMBOL ind 464 -64 R270
WINDOW 0 32 56 VTop 2
WINDOW 3 5 56 VBottom 2
SYMATTR InstName L1
SYMATTR Value 3.3µ
SYMATTR SpiceLine Rser=30m
SYMBOL res 592 -96 R0
SYMATTR InstName R2
SYMATTR Value 1Meg
SYMBOL res 592 16 R0
SYMATTR InstName R3
SYMATTR Value 187K
SYMBOL cap 704 -64 R0
SYMATTR InstName C4
SYMATTR Value 4.7p
SYMBOL res 896 -80 R0
SYMATTR InstName Rload1
SYMATTR Value 3.33
SYMBOL cap 800 -64 R0
SYMATTR InstName C5
SYMATTR Value 22µ
SYMATTR SpiceLine Rser=10m
SYMBOL cap 416 -160 R0
SYMATTR InstName C6
SYMATTR Value .1µ
SYMBOL ind 464 512 R270
WINDOW 0 32 56 VTop 2
WINDOW 3 5 56 VBottom 2
SYMATTR InstName L2
SYMATTR Value 2.2µ
SYMATTR SpiceLine Rser=30m
SYMBOL res 592 480 R0
SYMATTR InstName R4
SYMATTR Value 1Meg
SYMBOL res 592 592 R0
SYMATTR InstName R5
SYMATTR Value 316K
SYMBOL cap 704 512 R0
SYMATTR InstName C7
SYMATTR Value 4.7p
SYMBOL res 896 496 R0
SYMATTR InstName Rload2
SYMATTR Value 1.32
SYMBOL cap 800 512 R0
WINDOW 123 24 71 Left 2
SYMATTR Value 47µ
SYMATTR InstName C8
SYMATTR SpiceLine Rser=10m
SYMBOL cap 416 416 R0
SYMATTR InstName C9
SYMATTR Value .1µ
SYMBOL res 560 288 R90
WINDOW 0 0 56 VBottom 2
WINDOW 3 32 56 VTop 2
SYMATTR InstName R6
SYMATTR Value 1Meg
SYMBOL res 528 96 R90
WINDOW 0 0 56 VBottom 2
WINDOW 3 32 56 VTop 2
SYMATTR InstName R7
SYMATTR Value 1Meg
TEXT 800 704 Left 2 !.tran 500u startup
TEXT 464 -256 Bottom 2 ;LT8616 - Dual 42V Synchronous Monolithic Step-down Regulator with 6.5µA Quiescent Current\n5V, 3.3V, 2MHz Step-Down Converter\nInput: 5.8V to 42V       Output: 5V @ 1.5A, 3.3V @ 2.5A, Fsw = 2.05MHz
TEXT -200 728 Left 2 ;Note:\n  If the simulation model is not found please update with the "Sync Release" command from the "Tools" menu.\n  It remains the customer's responsibility to verify proper and reliable operation in the actual application.\n  Component substitution and printed circuit board layout may significantly affect circuit performance or reliability.\n  Contact your local sales representative for assistance. This circuit is distributed to customers only for use with LTC parts.\n  Copyright © 2015 Linear Technology Inc. All rights reserved.
