Version 4
SHEET 1 2004 1232
WIRE -32 -80 -112 -80
WIRE 64 -80 -32 -80
WIRE 256 -80 64 -80
WIRE 432 -80 256 -80
WIRE -112 -64 -112 -80
WIRE 256 -64 256 -80
WIRE 64 0 64 -80
WIRE 112 0 64 0
WIRE 432 0 432 -80
WIRE 432 0 400 0
WIRE 64 16 64 0
WIRE 432 16 432 0
WIRE -112 32 -112 16
WIRE 64 96 64 80
WIRE 112 96 64 96
WIRE 432 96 432 80
WIRE 432 96 400 96
WIRE 64 112 64 96
WIRE 432 112 432 96
WIRE 32 192 16 192
WIRE 112 192 96 192
WIRE 592 192 400 192
WIRE 96 288 96 192
WIRE 112 288 96 288
WIRE 432 288 400 288
WIRE 432 304 432 288
WIRE 432 384 432 368
WIRE 432 384 400 384
WIRE 480 384 432 384
WIRE 592 384 592 192
WIRE 592 384 560 384
WIRE 688 384 592 384
WIRE 592 400 592 384
WIRE 688 400 688 384
WIRE 32 480 16 480
WIRE 112 480 96 480
WIRE 432 480 400 480
WIRE 592 480 592 464
WIRE 208 560 208 544
WIRE 304 560 304 544
WIRE 432 560 432 480
WIRE 688 560 688 464
WIRE 688 560 432 560
WIRE 704 560 688 560
WIRE 784 560 768 560
WIRE 688 624 688 560
WIRE 208 656 208 640
WIRE -32 736 -32 -80
WIRE 560 736 -32 736
WIRE 864 736 816 736
WIRE 960 736 864 736
WIRE 864 752 864 736
WIRE 960 752 960 736
WIRE 864 848 864 816
WIRE 960 848 960 832
WIRE 688 864 688 848
WIRE 688 960 688 944
FLAG 304 560 0
FLAG 208 656 0
FLAG -112 32 0
FLAG 16 192 0
FLAG 592 480 0
FLAG 688 384 OUT
FLAG -112 -80 IN
FLAG 64 112 0
FLAG 432 112 0
FLAG 16 480 0
FLAG 960 848 0
FLAG 864 848 0
FLAG 784 560 0
FLAG 688 960 0
SYMBOL res 192 544 R0
SYMATTR InstName R1
SYMATTR Value 18.2K
SYMBOL voltage -112 -80 R0
WINDOW 123 0 0 Left 2
WINDOW 39 0 0 Left 2
SYMATTR InstName V1
SYMATTR Value 12
SYMBOL cap 96 208 M270
WINDOW 0 32 32 VTop 2
WINDOW 3 0 32 VBottom 2
SYMATTR InstName C2
SYMATTR Value 1µ
SYMBOL cap 416 304 R0
SYMATTR InstName C3
SYMATTR Value .1µ
SYMBOL cap 576 400 R0
SYMATTR InstName C4
SYMATTR Value 100µ
SYMATTR SpiceLine V=6.3 Irms=0 Rser=0.002 Lser=0 mfg="TDK" pn="C575OX5ROJI07M" type="X5R"
SYMBOL PowerProducts\\LT8614 256 240 R0
SYMATTR InstName U1
SYMBOL cap 48 16 R0
SYMATTR InstName C6
SYMATTR Value .1µ
SYMBOL cap 416 16 R0
SYMATTR InstName C7
SYMATTR Value .1µ
SYMBOL cap 96 496 M270
WINDOW 0 32 32 VTop 2
WINDOW 3 0 32 VBottom 2
SYMATTR InstName C1
SYMATTR Value 1n
SYMBOL LED 672 400 R0
WINDOW 123 24 92 Left 2
SYMATTR Value2 n=1
SYMATTR InstName D1
SYMATTR Value AOT-2015
SYMBOL res 944 736 R0
SYMATTR InstName R5
SYMATTR Value 40
SYMBOL cap 848 752 R0
SYMATTR InstName C8
SYMATTR Value 2.2µ
SYMATTR SpiceLine V=10 Irms=15.5 Rser=0.00856636 Lser=0 mfg="KEMET" pn="C0805C225K8RAC" type="X7R"
SYMBOL PowerProducts\\LT3083 688 736 R0
SYMATTR InstName U2
SYMBOL cap 704 576 R270
WINDOW 0 32 32 VTop 2
WINDOW 3 0 32 VBottom 2
SYMATTR InstName C9
SYMATTR Value 10µ
SYMATTR SpiceLine V=6.3 Irms=0 Rser=0.001 Lser=0 mfg="TDK" pn="C3216X5ROJ106M" type="X5R"
SYMBOL voltage 688 848 R0
WINDOW 123 0 0 Left 2
WINDOW 39 0 0 Left 2
SYMATTR InstName V3
SYMATTR Value PULSE(1.024 4.096 0 1n 1n 100u 200u)
SYMBOL ind 464 400 R270
WINDOW 0 32 56 VTop 2
WINDOW 3 5 56 VBottom 2
SYMATTR InstName L1
SYMATTR Value 2.2µ
SYMATTR SpiceLine Ipk=3.25 Rser=0.051 Rpar=2011.68 Cpar=5.56p mfg="Wurth Elektronik" pn="74437324022 WE-LHMI 4020"
TEXT 984 896 Left 2 !.tran 2m startup
TEXT -136 976 Left 2 ;Notes: \n  If the simulation model is not found please update with the "Sync Release" command from the "Tools" menu.\n  It remains the customer's responsibility to verify proper and reliable operation in the actual application.\n  Component substitution and printed circuit board layout may significantly affect circuit performance or reliability.\n  Contact your local sales representative for assistance. This circuit is distributed to customers only for use with LTC parts.\n  Copyright © 2016 Linear Technology Inc. All rights reserved.
TEXT 520 -96 Bottom 2 ;LT8614 - 42V, 4A Synchronous Step-Down Silent Switcher with 2.5µA Quiescent Current\nLT3083 - Adjustable 3A Single Resistor Low Dropout Regulator\nHyrbrid Wide Dimming Ratio Linear LED Current Controller\nInput: 3.4V to 42V     Output: 3A Max
