Version 4
SHEET 1 2680 844
WIRE 256 -64 64 -64
WIRE 560 -64 256 -64
WIRE 720 -64 560 -64
WIRE 560 -48 560 -64
WIRE 720 -48 720 -64
WIRE 256 -32 256 -64
WIRE 64 16 64 -64
WIRE 112 16 64 16
WIRE 416 16 400 16
WIRE 496 16 480 16
WIRE 560 48 560 16
WIRE 720 48 720 32
WIRE 112 112 96 112
WIRE 592 112 400 112
WIRE 432 208 400 208
WIRE 432 224 432 208
WIRE 16 304 -16 304
WIRE 112 304 80 304
WIRE 432 304 432 288
WIRE 432 304 400 304
WIRE 480 304 432 304
WIRE 592 304 592 112
WIRE 592 304 560 304
WIRE 704 304 592 304
WIRE 800 304 704 304
WIRE 896 304 800 304
WIRE 592 320 592 304
WIRE 704 320 704 304
WIRE 800 320 800 304
WIRE 896 320 896 304
WIRE 0 400 -16 400
WIRE 112 400 80 400
WIRE 592 400 400 400
WIRE 704 400 704 384
WIRE 704 400 592 400
WIRE 592 416 592 400
WIRE 800 416 800 384
WIRE 896 416 896 400
WIRE 192 464 192 448
WIRE 320 464 320 448
WIRE 592 512 592 496
FLAG 192 464 0
FLAG -16 400 0
FLAG 496 16 0
FLAG 720 48 0
FLAG 592 512 0
FLAG 896 416 0
FLAG 896 304 OUT
FLAG 720 -64 IN
FLAG 560 48 0
FLAG 96 112 0
FLAG 800 416 0
FLAG 320 464 0
FLAG -16 304 0
SYMBOL res 96 384 R90
WINDOW 0 0 56 VBottom 2
WINDOW 3 32 56 VTop 2
SYMATTR InstName R1
SYMATTR Value 60.4K
SYMBOL cap 416 32 R270
WINDOW 0 32 32 VTop 2
WINDOW 3 0 32 VBottom 2
SYMATTR InstName C1
SYMATTR Value 1µ
SYMBOL voltage 720 -64 R0
WINDOW 123 24 126 Left 2
WINDOW 39 24 111 Left 2
SYMATTR Value 12
SYMATTR InstName V1
SYMBOL ind 464 320 R270
WINDOW 0 32 56 VTop 2
WINDOW 3 5 56 VBottom 2
SYMATTR InstName L1
SYMATTR Value 3.3µ
SYMATTR SpiceLine Ipk=3.9 Rser=0.033 Rpar=5905 Cpar=3.85p
SYMBOL cap 416 224 R0
SYMATTR InstName C3
SYMATTR Value .1µ
SYMBOL cap 784 320 R0
SYMATTR InstName C4
SYMATTR Value 100µ
SYMATTR SpiceLine V=10 Irms=0 Rser=0.003 Lser=0
SYMBOL res 576 304 R0
SYMATTR InstName R2
SYMATTR Value 1Meg
SYMBOL res 576 400 R0
SYMATTR InstName R3
SYMATTR Value 243K
SYMBOL cap 688 320 R0
SYMATTR InstName C5
SYMATTR Value 10p
SYMBOL cap 544 -48 R0
SYMATTR InstName C6
SYMATTR Value 10µ
SYMBOL cap 80 288 R90
WINDOW 0 0 32 VBottom 2
WINDOW 3 32 32 VTop 2
SYMATTR InstName C2
SYMATTR Value 1n
SYMBOL LT8612 256 208 R0
SYMATTR InstName U2
SYMBOL res 880 304 R0
SYMATTR InstName R5
SYMATTR Value 0.833
TEXT 760 472 Left 2 !.tran 1m startup
TEXT 336 -80 Bottom 2 ;LT8612 - 42V, 6A Synchronous Step-Down Regulator with 3µA Quiescent Current\nµPower Buck Converter\nInput: 5.8V to 42V     Output: 5V @ 6A, Fsw=700KHz
TEXT -184 528 Left 2 ;Note:\n  A smaller SS capacitor is being used to reduce simulation time. See datasheet for typical values.\n  If the simulation model is not found please update with the "Sync Release" command from the "Tools" menu.\n  It remains the customer's responsibility to verify proper and reliable operation in the actual application.\n  Component substitution and printed circuit board layout may significantly affect circuit performance or reliability.\n  Contact your local sales representative for assistance. This circuit is distributed to customers only for use with LTC parts.\n  Copyright© 2014 Linear Technology Inc. All rights reserved.
