Version 4
SHEET 1 1568 1052
WIRE 384 -384 -160 -384
WIRE 672 -384 384 -384
WIRE -16 -368 -240 -368
WIRE 96 -368 -16 -368
WIRE 192 -368 96 -368
WIRE 288 -368 192 -368
WIRE -240 -352 -240 -368
WIRE 96 -352 96 -368
WIRE 192 -352 192 -368
WIRE 288 -352 288 -368
WIRE 384 -352 384 -384
WIRE -240 -256 -240 -272
WIRE -16 -256 -16 -368
WIRE 0 -256 -16 -256
WIRE 496 -256 464 -256
WIRE 496 -240 496 -256
WIRE 0 -160 -16 -160
WIRE 496 -160 496 -176
WIRE 496 -160 464 -160
WIRE 560 -160 496 -160
WIRE 736 -160 640 -160
WIRE 816 -160 736 -160
WIRE 928 -160 816 -160
WIRE 1008 -160 928 -160
WIRE 736 -144 736 -160
WIRE 928 -144 928 -160
WIRE 1008 -144 1008 -160
WIRE 736 -64 736 -80
WIRE 736 -64 464 -64
WIRE 816 -64 816 -80
WIRE 816 -64 736 -64
WIRE 816 -48 816 -64
WIRE 928 -48 928 -80
WIRE 1008 -48 1008 -64
WIRE -160 32 -160 -384
WIRE -128 32 -160 32
WIRE 0 32 -48 32
WIRE 496 32 464 32
WIRE 496 48 496 32
WIRE 816 48 816 32
WIRE -160 128 -160 32
WIRE -128 128 -160 128
WIRE -16 128 -48 128
WIRE 0 128 -16 128
WIRE 496 128 496 112
WIRE 496 128 464 128
WIRE 560 128 496 128
WIRE 672 128 672 -384
WIRE 672 128 640 128
WIRE 736 128 672 128
WIRE 816 128 736 128
WIRE 928 128 816 128
WIRE 1008 128 928 128
WIRE 736 144 736 128
WIRE 928 144 928 128
WIRE 1008 144 1008 128
WIRE -160 224 -160 128
WIRE -128 224 -160 224
WIRE 0 224 -48 224
WIRE 736 224 736 208
WIRE 736 224 464 224
WIRE 816 224 816 208
WIRE 816 224 736 224
WIRE 816 240 816 224
WIRE 928 240 928 208
WIRE 1008 240 1008 224
WIRE -16 320 -16 128
WIRE 0 320 -16 320
WIRE 672 320 672 128
WIRE 672 320 464 320
WIRE 688 320 672 320
WIRE 768 320 752 320
WIRE 816 336 816 320
WIRE -80 416 -96 416
WIRE 0 416 -16 416
WIRE 560 416 464 416
WIRE 736 416 640 416
WIRE 816 416 736 416
WIRE 928 416 816 416
WIRE 1008 416 928 416
WIRE 736 432 736 416
WIRE 928 432 928 416
WIRE 1008 432 1008 416
WIRE 736 512 736 496
WIRE 736 512 464 512
WIRE 816 512 816 496
WIRE 816 512 736 512
WIRE 816 528 816 512
WIRE 928 528 928 496
WIRE 1008 528 1008 512
WIRE 0 608 -16 608
WIRE 480 608 464 608
WIRE 576 608 560 608
WIRE 816 624 816 608
WIRE 112 720 112 704
WIRE 240 720 240 704
WIRE 368 720 368 704
WIRE 112 800 112 784
WIRE 240 800 240 784
FLAG 368 720 0
FLAG 576 608 0
FLAG 240 800 0
FLAG 112 800 0
FLAG -96 416 0
FLAG 1008 528 0
FLAG 1008 416 OUT3
FLAG 1008 240 0
FLAG 1008 128 OUT2
FLAG 1008 -48 0
FLAG 1008 -160 OUT1
FLAG 768 320 0
FLAG -240 -256 0
FLAG -16 -160 0
FLAG -240 -368 IN
FLAG -16 608 0
FLAG 928 -48 0
FLAG 928 240 0
FLAG 928 528 0
FLAG 816 48 0
FLAG 816 336 0
FLAG 816 624 0
SYMBOL res 576 592 R90
WINDOW 0 0 56 VBottom 2
WINDOW 3 32 56 VTop 2
SYMATTR InstName R1
SYMATTR Value 28.7K
SYMBOL cap 224 720 R0
SYMATTR InstName C1
SYMATTR Value 1000p
SYMBOL cap 96 720 R0
SYMATTR InstName C2
SYMATTR Value 1000p
SYMBOL cap -16 400 R90
WINDOW 0 0 32 VBottom 2
WINDOW 3 32 32 VTop 2
SYMATTR InstName C3
SYMATTR Value 4.7µ
SYMBOL ind 544 432 R270
WINDOW 0 32 56 VTop 2
WINDOW 3 5 56 VBottom 2
SYMATTR InstName L1
SYMATTR Value 1µ
SYMATTR SpiceLine Rser=50m
SYMBOL res 800 400 R0
SYMATTR InstName R2
SYMATTR Value 187K
SYMBOL res 800 512 R0
SYMATTR InstName R3
SYMATTR Value 150K
SYMBOL cap 720 432 R0
SYMATTR InstName C4
SYMATTR Value 22p
SYMBOL cap 912 432 R0
SYMATTR InstName C5
SYMATTR Value 47µ
SYMATTR SpiceLine Rser=5m
SYMBOL ind 544 144 R270
WINDOW 0 32 56 VTop 2
WINDOW 3 5 56 VBottom 2
SYMATTR InstName L2
SYMATTR Value 1.5µ
SYMATTR SpiceLine Rser=10m
SYMBOL res 800 112 R0
SYMATTR InstName R4
SYMATTR Value 464K
SYMBOL res 800 224 R0
SYMATTR InstName R5
SYMATTR Value 200K
SYMBOL cap 720 144 R0
SYMATTR InstName C6
SYMATTR Value 12p
SYMBOL cap 912 144 R0
SYMATTR InstName C7
SYMATTR Value 47µ
SYMATTR SpiceLine Rser=5m
SYMBOL cap 480 48 R0
SYMATTR InstName C8
SYMATTR Value .1µ
SYMBOL ind 544 -144 R270
WINDOW 0 32 56 VTop 2
WINDOW 3 5 56 VBottom 2
SYMATTR InstName L3
SYMATTR Value 3.3µ
SYMATTR SpiceLine Rser=1m
SYMBOL res 800 -176 R0
SYMATTR InstName R6
SYMATTR Value 806K
SYMBOL res 800 -64 R0
SYMATTR InstName R7
SYMATTR Value 200K
SYMBOL cap 720 -144 R0
SYMATTR InstName C9
SYMATTR Value 4.7p
SYMBOL cap 912 -144 R0
SYMATTR InstName C10
SYMATTR Value 47µ
SYMATTR SpiceLine Rser=5m
SYMBOL cap 480 -240 R0
SYMATTR InstName C11
SYMATTR Value .1µ
SYMBOL cap 688 336 R270
WINDOW 0 32 32 VTop 2
WINDOW 3 0 32 VBottom 2
WINDOW 123 -21 32 VBottom 2
SYMATTR InstName C12
SYMATTR Value 4.7µ
SYMATTR Value2 x2
SYMATTR SpiceLine Rser=5m
SYMBOL voltage -240 -368 R0
SYMATTR InstName V1
SYMATTR Value 24
SYMBOL LT8601 240 176 R0
SYMATTR InstName U1
SYMBOL res -32 16 R90
WINDOW 0 0 56 VBottom 2
WINDOW 3 32 56 VTop 2
SYMATTR InstName R8
SYMATTR Value 20K
SYMBOL res -144 144 R270
WINDOW 0 32 56 VTop 2
WINDOW 3 0 56 VBottom 2
SYMATTR InstName R9
SYMATTR Value 20K
SYMBOL res -144 240 R270
WINDOW 0 32 56 VTop 2
WINDOW 3 0 56 VBottom 2
SYMATTR InstName R10
SYMATTR Value 20K
SYMBOL res 992 128 R0
SYMATTR InstName Rload2
SYMATTR Value 3.3
SYMBOL res 992 416 R0
SYMATTR InstName Rload3
SYMATTR Value 1.2
SYMBOL res 992 -160 R0
SYMATTR InstName Rload1
SYMATTR Value 3.3
TEXT 760 704 Left 2 !.tran 2.2m startup
TEXT 272 -400 Bottom 2 ;LT8601 - 42V Triple Monolithic Synchronous Step-Down Regulator\nTriple Automotive Buck Regulator\nInput: 5.5V to 42V       Output: 5V @ 1.0A, 3.3V @ 2.0A, 1.8V @ 1A. Fsw = 2MHz
TEXT -280 824 Left 2 ;Note:\n  If the simulation model is not found please update with the "Sync Release" command from the "Tools" menu.\n  It remains the customer's responsibility to verify proper and reliable operation in the actual application.\n  Component substitution and printed circuit board layout may significantly affect circuit performance or reliability.\n  Contact your local sales representative for assistance. This circuit is distributed to customers only for use with LTC parts.\n  Copyright © 2016 Linear Technology Inc. All rights reserved.
