Version 4
SHEET 1 1536 1700
WIRE -352 160 -448 160
WIRE -240 160 -352 160
WIRE 80 160 -240 160
WIRE 176 160 80 160
WIRE 272 160 176 160
WIRE 832 160 368 160
WIRE -448 176 -448 160
WIRE -352 176 -352 160
WIRE -240 176 -240 160
WIRE 80 208 80 160
WIRE 176 208 176 160
WIRE 272 208 272 160
WIRE 368 208 368 160
WIRE -448 272 -448 256
WIRE -352 272 -352 240
WIRE -240 272 -240 256
WIRE -16 272 -240 272
WIRE 480 272 448 272
WIRE -240 288 -240 272
WIRE 480 288 480 272
WIRE -112 368 -128 368
WIRE -16 368 -32 368
WIRE 480 368 480 352
WIRE 480 368 448 368
WIRE 528 368 480 368
WIRE 656 368 608 368
WIRE 736 368 656 368
WIRE 880 368 736 368
WIRE 960 368 880 368
WIRE 656 384 656 368
WIRE 880 384 880 368
WIRE 960 384 960 368
WIRE 656 464 656 448
WIRE 656 464 448 464
WIRE 736 464 736 448
WIRE 736 464 656 464
WIRE 736 480 736 464
WIRE 880 480 880 448
WIRE 960 480 960 464
WIRE -144 560 -176 560
WIRE -16 560 -64 560
WIRE 480 560 448 560
WIRE 480 576 480 560
WIRE 736 576 736 560
WIRE -144 656 -176 656
WIRE -48 656 -64 656
WIRE -16 656 -48 656
WIRE 480 656 480 640
WIRE 480 656 448 656
WIRE 528 656 480 656
WIRE 656 656 608 656
WIRE 736 656 656 656
WIRE 832 656 832 160
WIRE 832 656 736 656
WIRE 880 656 832 656
WIRE 960 656 880 656
WIRE 656 672 656 656
WIRE 880 672 880 656
WIRE 960 672 960 656
WIRE -144 752 -176 752
WIRE -16 752 -64 752
WIRE 656 752 656 736
WIRE 656 752 448 752
WIRE 736 752 736 736
WIRE 736 752 656 752
WIRE 736 768 736 752
WIRE 880 768 880 736
WIRE 960 768 960 752
WIRE -144 848 -176 848
WIRE -16 848 -64 848
WIRE 480 848 448 848
WIRE 496 848 480 848
WIRE 576 848 560 848
WIRE 736 864 736 848
WIRE -48 944 -48 656
WIRE -16 944 -48 944
WIRE 480 944 480 848
WIRE 480 944 448 944
WIRE 832 944 832 656
WIRE 832 944 480 944
WIRE -48 1040 -48 944
WIRE -16 1040 -48 1040
WIRE 480 1040 448 1040
WIRE 592 1040 560 1040
WIRE 672 1040 592 1040
WIRE 880 1040 672 1040
WIRE 960 1040 880 1040
WIRE 592 1056 592 1040
WIRE 880 1056 880 1040
WIRE 960 1056 960 1040
WIRE -16 1136 -32 1136
WIRE 592 1136 592 1120
WIRE 592 1136 448 1136
WIRE 672 1136 672 1120
WIRE 672 1136 592 1136
WIRE 736 1136 672 1136
WIRE 832 1136 816 1136
WIRE 880 1152 880 1120
WIRE 960 1152 960 1136
WIRE -16 1232 -32 1232
WIRE 464 1232 448 1232
WIRE 576 1232 544 1232
WIRE 656 1232 576 1232
WIRE 880 1232 656 1232
WIRE 960 1232 880 1232
WIRE 576 1248 576 1232
WIRE 880 1248 880 1232
WIRE 960 1248 960 1232
WIRE -16 1328 -32 1328
WIRE 576 1328 576 1312
WIRE 576 1328 448 1328
WIRE 656 1328 656 1312
WIRE 656 1328 576 1328
WIRE 736 1328 656 1328
WIRE 832 1328 816 1328
WIRE 880 1344 880 1312
WIRE 960 1344 960 1328
WIRE 80 1408 80 1392
WIRE 176 1408 176 1392
WIRE 272 1408 272 1392
WIRE 352 1408 352 1392
WIRE 80 1504 80 1488
WIRE 176 1504 176 1472
WIRE 272 1504 272 1472
FLAG 352 1408 0
FLAG 80 1504 0
FLAG 272 1504 0
FLAG 176 1504 0
FLAG -32 1328 0
FLAG -96 1136 0
FLAG 960 1344 0
FLAG 960 1232 OUT4
FLAG 960 1152 0
FLAG 960 1040 OUT3
FLAG 960 768 0
FLAG 960 656 OUT2
FLAG 960 480 0
FLAG 960 368 OUT1
FLAG 576 848 0
FLAG -448 272 0
FLAG -128 368 0
FLAG -448 160 IN
FLAG -176 560 OUT1
FLAG -176 656 OUT2
FLAG -176 752 OUT3
FLAG -176 848 OUT4
FLAG -96 1232 0
FLAG -352 272 0
FLAG -240 368 0
FLAG 880 480 0
FLAG 880 768 0
FLAG 880 1152 0
FLAG 880 1344 0
FLAG 736 576 0
FLAG 736 864 0
FLAG 832 1328 0
FLAG 832 1136 0
SYMBOL LT8602 224 800 R0
SYMATTR InstName U1
SYMBOL res 64 1392 R0
SYMATTR InstName R1
SYMATTR Value 28.7K
SYMBOL cap 256 1408 R0
SYMATTR InstName C1
SYMATTR Value 1000p
SYMBOL cap 160 1408 R0
SYMATTR InstName C2
SYMATTR Value 1000p
SYMBOL cap -32 1120 R90
WINDOW 0 0 32 VBottom 2
WINDOW 3 32 32 VTop 2
SYMATTR InstName C3
SYMATTR Value 4.7µ
SYMBOL ind 448 1248 R270
WINDOW 0 32 56 VTop 2
WINDOW 3 5 56 VBottom 2
SYMATTR InstName L1
SYMATTR Value 1µ
SYMATTR SpiceLine Rser=50m
SYMBOL res 640 1216 R0
SYMATTR InstName R2
SYMATTR Value 75K
SYMBOL res 720 1344 R270
WINDOW 0 32 56 VTop 2
WINDOW 3 0 56 VBottom 2
SYMATTR InstName R3
SYMATTR Value 150K
SYMBOL cap 560 1248 R0
SYMATTR InstName C4
SYMATTR Value 22p
SYMBOL cap 864 1248 R0
SYMATTR InstName C5
SYMATTR Value 47µ
SYMATTR SpiceLine Rser=5m
SYMBOL res 944 1232 R0
SYMATTR InstName Rload4
SYMATTR Value .8
SYMBOL ind 464 1056 R270
WINDOW 0 32 56 VTop 2
WINDOW 3 5 56 VBottom 2
SYMATTR InstName L2
SYMATTR Value 1µ
SYMATTR SpiceLine Rser=50m
SYMBOL res 656 1024 R0
SYMATTR InstName R5
SYMATTR Value 187K
SYMBOL res 720 1152 R270
WINDOW 0 32 56 VTop 2
WINDOW 3 0 56 VBottom 2
SYMATTR InstName R6
SYMATTR Value 150K
SYMBOL cap 576 1056 R0
SYMATTR InstName C6
SYMATTR Value 22p
SYMBOL cap 864 1056 R0
SYMATTR InstName C7
SYMATTR Value 47µ
SYMATTR SpiceLine Rser=5m
SYMBOL res 944 1040 R0
SYMATTR InstName Rload3
SYMATTR Value 1.2
SYMBOL ind 512 672 R270
WINDOW 0 32 56 VTop 2
WINDOW 3 5 56 VBottom 2
SYMATTR InstName L3
SYMATTR Value 2.2µ
SYMATTR SpiceLine Rser=10m
SYMBOL res 720 640 R0
SYMATTR InstName R8
SYMATTR Value 464K
SYMBOL res 720 752 R0
SYMATTR InstName R9
SYMATTR Value 200K
SYMBOL cap 640 672 R0
SYMATTR InstName C8
SYMATTR Value 22p
SYMBOL cap 864 672 R0
SYMATTR InstName C9
SYMATTR Value 47µ
SYMATTR SpiceLine Rser=5m
SYMBOL res 944 656 R0
SYMATTR InstName Rload2
SYMATTR Value 3.3
SYMBOL cap 464 576 R0
SYMATTR InstName C10
SYMATTR Value .1µ
SYMBOL ind 512 384 R270
WINDOW 0 32 56 VTop 2
WINDOW 3 5 56 VBottom 2
SYMATTR InstName L4
SYMATTR Value 4.7µ
SYMATTR SpiceLine Rser=1m
SYMBOL res 720 352 R0
SYMATTR InstName R11
SYMATTR Value 806K
SYMBOL res 720 464 R0
SYMATTR InstName R12
SYMATTR Value 200K
SYMBOL cap 640 384 R0
SYMATTR InstName C11
SYMATTR Value 4.7p
SYMBOL cap 864 384 R0
SYMATTR InstName C12
SYMATTR Value 47µ
SYMATTR SpiceLine Rser=5m
SYMBOL res 944 368 R0
SYMATTR InstName Rload1
SYMATTR Value 1500
SYMBOL cap 464 288 R0
SYMATTR InstName C13
SYMATTR Value .1µ
SYMBOL cap 496 864 R270
WINDOW 0 32 32 VTop 2
WINDOW 3 0 32 VBottom 2
WINDOW 123 -21 32 VBottom 2
SYMATTR InstName C14
SYMATTR Value 4.7µ
SYMATTR Value2 x2
SYMATTR SpiceLine Rser=5m
SYMBOL voltage -448 160 R0
WINDOW 123 0 0 Left 2
WINDOW 39 0 0 Left 2
SYMATTR InstName V1
SYMATTR Value 10
SYMBOL res -128 384 R270
WINDOW 0 32 56 VTop 2
WINDOW 3 0 56 VBottom 2
SYMATTR InstName R7
SYMATTR Value 100K
SYMBOL res -48 544 R90
WINDOW 0 0 56 VBottom 2
WINDOW 3 32 56 VTop 2
SYMATTR InstName R10
SYMATTR Value 19.1K
SYMBOL res -48 736 R90
WINDOW 0 0 56 VBottom 2
WINDOW 3 32 56 VTop 2
SYMATTR InstName R13
SYMATTR Value 19.1K
SYMBOL res -48 832 R90
WINDOW 0 0 56 VBottom 2
WINDOW 3 32 56 VTop 2
SYMATTR InstName R14
SYMATTR Value 19.1K
SYMBOL res -48 640 R90
WINDOW 0 0 56 VBottom 2
WINDOW 3 32 56 VTop 2
SYMATTR InstName R15
SYMATTR Value 19.1K
SYMBOL cap -32 1216 R90
WINDOW 0 0 32 VBottom 2
WINDOW 3 32 32 VTop 2
SYMATTR InstName C15
SYMATTR Value 22p
SYMBOL cap -368 176 R0
WINDOW 3 36 32 Left 2
WINDOW 123 24 59 Left 2
SYMATTR Value 4.7µ
SYMATTR Value2 x2
SYMATTR InstName C16
SYMBOL res -256 160 R0
SYMATTR InstName R4
SYMATTR Value 340K
SYMBOL res -256 272 R0
SYMATTR InstName R16
SYMATTR Value 100K
TEXT 760 1408 Left 2 !.tran 3m startup
TEXT 272 136 Bottom 2 ;LT8602 - 42V Quad Monolithic Synchronous Step-Down Regulator\nAutomotive Quad Buck Regulator\nInput: 5.5V to 42V       Output: 5V @ 1.5A, 3.3V @ 2.5A, 1.8V @ 1.8A, 1.25V @ 1.8A
TEXT -288 1520 Left 2 ;Note:\n  If the simulation model is not found please update with the "Sync Release" command from the "Tools" menu.\n  It remains the customer's responsibility to verify proper and reliable operation in the actual application.\n  Component substitution and printed circuit board layout may significantly affect circuit performance or reliability.\n  Contact your local sales representative for assistance. This circuit is distributed to customers only for use with LTC parts.\n  Copyright © 2016 Linear Technology Inc. All rights reserved.
