Version 4
SHEET 1 2680 888
WIRE 16 -64 -80 -64
WIRE 96 -64 16 -64
WIRE 256 -64 96 -64
WIRE -80 -48 -80 -64
WIRE 16 -48 16 -64
WIRE 256 -48 256 -64
WIRE 96 0 96 -64
WIRE 112 0 96 0
WIRE 416 0 400 0
WIRE 496 0 480 0
WIRE -80 48 -80 32
WIRE 16 48 16 16
WIRE 112 96 80 96
WIRE 432 96 400 96
WIRE 432 112 432 96
WIRE 432 192 432 176
WIRE 432 192 400 192
WIRE 496 192 432 192
WIRE 608 192 576 192
WIRE 720 192 608 192
WIRE 816 192 720 192
WIRE 912 192 816 192
WIRE 608 208 608 192
WIRE 720 208 720 192
WIRE 816 208 816 192
WIRE 912 208 912 192
WIRE 16 288 0 288
WIRE 112 288 80 288
WIRE 608 288 400 288
WIRE 720 288 720 272
WIRE 720 288 608 288
WIRE 608 304 608 288
WIRE 816 304 816 272
WIRE 912 304 912 288
WIRE 16 384 0 384
WIRE 112 384 96 384
WIRE 416 384 400 384
WIRE 608 400 608 384
FLAG 416 384 0
FLAG 0 384 0
FLAG 0 288 0
FLAG -80 48 0
FLAG 496 0 0
FLAG 608 400 0
FLAG 912 304 0
FLAG 912 192 OUT
FLAG -80 -64 IN
FLAG 16 48 0
FLAG 816 304 0
FLAG 80 96 0
SYMBOL res 112 368 R90
WINDOW 0 0 56 VBottom 2
WINDOW 3 32 56 VTop 2
SYMATTR InstName R1
SYMATTR Value 18.2K
SYMBOL cap 80 272 R90
WINDOW 0 0 32 VBottom 2
WINDOW 3 32 32 VTop 2
SYMATTR InstName C1
SYMATTR Value .001µ
SYMBOL voltage -80 -64 R0
WINDOW 123 0 0 Left 2
WINDOW 39 24 124 Left 2
SYMATTR InstName V1
SYMATTR Value 12
SYMBOL cap 416 16 R270
WINDOW 0 32 32 VTop 2
WINDOW 3 0 32 VBottom 2
SYMATTR InstName C2
SYMATTR Value 1µ
SYMBOL ind 480 208 R270
WINDOW 0 32 56 VTop 2
WINDOW 3 5 56 VBottom 2
SYMATTR InstName L1
SYMATTR Value 2.2µ
SYMATTR SpiceLine Ipk=3.7 Rser=0.02135 Rpar=207.24 Cpar=0 mfg="Coilcraft" pn="XFL4020-222"
SYMBOL cap 416 112 R0
SYMATTR InstName C3
SYMATTR Value .22µ
SYMBOL cap 800 208 R0
WINDOW 3 38 32 Left 2
WINDOW 123 24 54 Left 2
SYMATTR Value 47µ
SYMATTR Value2 x2
SYMATTR InstName C4
SYMATTR SpiceLine V=6.3 Irms=0 Rser=0.002 Lser=0 Rpar=1000 Cpar=5p mfg="TDK" pn="C4532X5ROJ47@M" type="X5R"
SYMBOL res 592 192 R0
SYMATTR InstName R2
SYMATTR Value 1Meg
SYMBOL res 592 288 R0
SYMATTR InstName R3
SYMATTR Value 182K
SYMBOL cap 704 208 R0
SYMATTR InstName C5
SYMATTR Value 10p
SYMBOL cap 0 -48 R0
SYMATTR InstName C6
SYMATTR Value 4.7µ
SYMATTR SpiceLine V=50
SYMBOL res 896 192 R0
SYMATTR InstName Rload
SYMATTR Value 2.5
SYMBOL PowerProducts\\LT8609S 256 192 R0
SYMATTR InstName U1
TEXT 416 -88 Bottom 2 ;LT8609S - 42V, 2A Synchronous Step-Down Regulator with 2.5uA Quiescent Current\n2MHz Low EMI High Voltage Synchronous Buck Regulator\nInput: 5.5V to 42V       Output: 5V @ 2A, Fsw = 2MHz
TEXT -200 440 Left 2 ;Note:\n  Smaller values are used for TK/SS capacitors to reduce simulation time. See datasheet for typical values.\n  If the simulation model is not found please update with the "Sync Release" command from the "Tools" menu.\n  It remains the customer's responsibility to verify proper and reliable operation in the actual application.\n  Component substitution and printed circuit board layout may significantly affect circuit performance or reliability\n  Contact your local sales representative for assistance. This circuit is distributed to customers only for use with LTC parts\n  Copyright © 2017 Linear Technology Inc. All rights reserved.
TEXT 816 376 Left 2 !.tran .8m startup
