Version 4
SHEET 1 1824 1224
WIRE -256 -96 -368 -96
WIRE -80 -96 -256 -96
WIRE 0 -96 -80 -96
WIRE 96 -96 0 -96
WIRE 256 -96 96 -96
WIRE -368 -80 -368 -96
WIRE -256 -80 -256 -96
WIRE 0 -80 0 -96
WIRE 256 -48 256 -96
WIRE 0 0 0 -16
WIRE 96 0 96 -96
WIRE 112 0 96 0
WIRE 416 0 400 0
WIRE 496 0 480 0
WIRE -368 16 -368 0
WIRE -256 16 -256 -16
WIRE 112 96 96 96
WIRE 688 96 400 96
WIRE 112 192 96 192
WIRE 432 192 400 192
WIRE 432 208 432 192
WIRE 112 288 96 288
WIRE 432 288 432 272
WIRE 432 288 400 288
WIRE 480 288 432 288
WIRE 576 288 560 288
WIRE 592 288 576 288
WIRE 688 288 688 96
WIRE 688 288 672 288
WIRE 736 288 688 288
WIRE 816 288 736 288
WIRE 1040 288 816 288
WIRE 1152 288 1136 288
WIRE 1216 288 1152 288
WIRE 736 304 736 288
WIRE 1216 304 1216 288
WIRE -80 368 -80 -96
WIRE 112 384 96 384
WIRE 432 384 400 384
WIRE 576 384 576 288
WIRE 576 384 432 384
WIRE 736 384 736 368
WIRE 1216 384 1216 368
WIRE 432 400 432 384
WIRE 816 416 816 288
WIRE 832 416 816 416
WIRE 1152 416 1152 288
WIRE 1152 416 1088 416
WIRE -240 480 -320 480
WIRE -80 480 -80 448
WIRE -80 480 -160 480
WIRE 112 480 -80 480
WIRE 432 480 432 464
WIRE 432 480 400 480
WIRE 688 480 688 288
WIRE 688 480 432 480
WIRE 432 496 432 480
WIRE 832 496 816 496
WIRE 1120 496 1120 336
WIRE 1120 496 1088 496
WIRE -320 576 -320 480
WIRE 112 576 32 576
WIRE 432 576 432 560
WIRE 432 576 400 576
WIRE 688 576 688 560
WIRE 688 576 432 576
WIRE 832 576 816 576
WIRE 32 592 32 576
WIRE 688 592 688 576
WIRE 192 640 192 624
WIRE 320 640 320 624
WIRE -544 688 -544 672
WIRE -320 688 -320 656
WIRE 32 688 32 672
WIRE 688 688 688 672
WIRE -544 784 -544 768
WIRE -320 784 -320 768
FLAG 192 640 0
FLAG 320 640 0
FLAG 32 688 0
FLAG 496 0 0
FLAG 736 384 0
FLAG 688 688 0
FLAG 1216 288 OUT
FLAG -80 -96 IN
FLAG 1216 384 0
FLAG 0 0 0
FLAG -368 16 0
FLAG -256 16 0
FLAG 816 496 0
FLAG 816 576 0
FLAG 96 96 0
FLAG -320 784 0
FLAG -544 784 0
FLAG -544 672 AD5245
FLAG 96 192 IMON
SYMBOL res 16 576 R0
SYMATTR InstName R1
SYMATTR Value 60.4K
SYMATTR SpiceLine tol=1 pwr=0.1
SYMBOL cap 416 16 R270
WINDOW 0 32 32 VTop 2
WINDOW 3 0 32 VBottom 2
SYMATTR InstName C1
SYMATTR Value 1µ
SYMBOL ind 464 304 R270
WINDOW 0 32 56 VTop 2
WINDOW 3 5 56 VBottom 2
SYMATTR InstName L1
SYMATTR Value 4.7µ
SYMATTR SpiceLine Rser=3m
SYMBOL cap 416 208 R0
SYMATTR InstName C2
SYMATTR Value .1µ
SYMBOL cap 720 304 R0
SYMATTR InstName C3
SYMATTR Value 22µ
SYMATTR SpiceLine V=6.3 Irms=11.588 Rser=0.003 Lser=0 mfg="KEMET" pn="C1206C226K9PAC" type="X5R"
SYMBOL res 672 464 R0
SYMATTR InstName R2
SYMATTR Value 1Meg
SYMBOL res 672 576 R0
SYMATTR InstName R3
SYMATTR Value 309K
SYMBOL cap 416 496 R0
SYMATTR InstName C4
SYMATTR Value 10p
SYMBOL PowerProducts\\LT8611 256 288 R0
SYMATTR InstName U1
SYMBOL res 576 304 R270
WINDOW 0 32 56 VTop 2
WINDOW 3 0 56 VBottom 2
SYMATTR InstName R4
SYMATTR Value 50m
SYMBOL cap 416 400 R0
SYMATTR InstName C5
SYMATTR Value 1µ
SYMBOL res -96 352 R0
SYMATTR Value 309K
SYMATTR InstName R5
SYMBOL cap -16 -80 R0
SYMATTR InstName C6
SYMATTR Value .2µ
SYMBOL current -368 0 M180
WINDOW 0 24 80 Left 2
WINDOW 3 24 0 Left 2
SYMATTR InstName I1
SYMATTR Value 0.2
SYMBOL diode -272 -80 R0
WINDOW 3 39 31 Left 2
WINDOW 123 26 65 Left 2
SYMATTR Value MUR460
SYMATTR Value2 N=15
SYMATTR InstName D1
SYMBOL Misc\\cell 1216 304 R0
WINDOW 123 24 77 Left 2
SYMATTR Value 3.8
SYMATTR SpiceLine Rser=100m
SYMATTR InstName V1
SYMBOL PowerProducts\\LTC4412 960 496 R0
SYMATTR InstName U2
SYMBOL pmos 1040 336 R270
WINDOW 0 90 41 VTop 2
WINDOW 3 57 49 VTop 2
SYMATTR InstName Q1
SYMATTR Value FDS6375
SYMBOL voltage -320 672 R0
WINDOW 123 24 138 Left 2
WINDOW 39 24 117 Left 2
SYMATTR InstName V2
SYMATTR Value 0
SYMBOL Misc\\signal -544 672 R0
WINDOW 123 22 127 Left 2
WINDOW 39 24 149 Left 2
WINDOW 40 25 171 Left 2
SYMATTR Value2 1m 100k
SYMATTR SpiceLine 3m 15k
SYMATTR SpiceLine2 3.01m 25.7k)
SYMATTR Value PWL(0 100k
SYMATTR InstName V3
SYMBOL res -144 464 R90
WINDOW 3 32 56 VTop 2
WINDOW 0 0 56 VBottom 2
SYMATTR Value 6.2K
SYMATTR InstName R6
SYMBOL bv -320 560 R0
SYMATTR InstName B1
SYMATTR Value V=I(V2)*V(AD5245)
TEXT 1000 688 Left 2 !.tran 4m startup
TEXT -280 56 Top 2 ;Photovoltaic Equivalent Circuit\nVoc=11V, Vmp=9V, Isc=0.2A, \nImp=0.18A, Pmp=1.6W
TEXT -320 888 Top 2 ;µP Controlled AD5245 Digital Potentiometer
TEXT 8 744 Left 2 ;Note:\n  Smaller input capacitor, C6, is being used to decrease simulation time. See datasheet for typical values.\n  The AD5245 digital potentiometer is modeled as a voltage dependent variable resistor.\n  If the simulation model is not found please update with the "Sync Release" command from the "Tools" menu.\n  It remains the customer's responsibility to verify proper and reliable operation in the actual application.\n  Component substitution and printed circuit board layout may significantly affect circuit performance or reliability\n  Contact your local sales representative for assistance. This circuit is distributed to customers only for use with LTC parts\n  Copyright © 2017 Linear Technology Inc. All rights reserved.
TEXT 456 -120 Bottom 2 ;LT8611 - 42V, 2.5A Synchronous Step-Down Regulator with Current Sense and 2.5µA Quiescent Current\nLTC4412 - Low Loss PowerPath Controller\nSolar Powered Battery Charger with µP Controlled MPPT\nInput: 4.2V to 42V       Output: 4.1V @ 1A, Fsw = 700kHz
RECTANGLE Normal -128 48 -416 -128 2
RECTANGLE Normal -16 880 -608 544 2
