Version 4
SHEET 1 2656 836
WIRE 304 -128 304 -144
WIRE 16 -64 -80 -64
WIRE 96 -64 16 -64
WIRE 208 -64 96 -64
WIRE -80 -48 -80 -64
WIRE 16 -48 16 -64
WIRE 208 -48 208 -64
WIRE 304 -48 304 -64
WIRE 96 16 96 -64
WIRE 112 16 96 16
WIRE 608 16 400 16
WIRE -80 48 -80 32
WIRE 16 48 16 16
WIRE 448 112 400 112
WIRE 448 128 448 112
WIRE 32 208 0 208
WIRE 112 208 96 208
WIRE 448 208 448 192
WIRE 448 208 400 208
WIRE 496 208 448 208
WIRE 608 208 608 16
WIRE 608 208 576 208
WIRE 688 208 608 208
WIRE 704 208 688 208
WIRE 800 208 784 208
WIRE 832 208 800 208
WIRE 960 208 912 208
WIRE 608 224 608 208
WIRE 960 224 960 208
WIRE 16 304 0 304
WIRE 112 304 96 304
WIRE 480 304 400 304
WIRE 608 304 608 288
WIRE 960 320 960 304
WIRE 480 352 480 304
WIRE 688 352 688 208
WIRE 688 352 480 352
WIRE 688 400 400 400
WIRE 800 400 800 208
WIRE 800 400 688 400
WIRE 688 416 688 400
WIRE 800 416 800 400
WIRE 16 496 0 496
WIRE 112 496 96 496
WIRE 688 496 688 480
WIRE 688 496 400 496
WIRE 800 496 688 496
WIRE 208 576 208 560
WIRE 304 576 304 560
FLAG 208 576 0
FLAG 304 576 0
FLAG 0 496 0
FLAG 0 208 0
FLAG -80 48 0
FLAG 304 -144 0
FLAG 608 304 0
FLAG 960 320 0
FLAG 960 208 OUT
FLAG -80 -64 IN
FLAG 0 304 0
FLAG 16 48 0
SYMBOL res 112 480 R90
WINDOW 0 0 56 VBottom 2
WINDOW 3 32 56 VTop 2
SYMATTR InstName R1
SYMATTR Value 18.2K
SYMBOL cap 96 192 R90
WINDOW 0 0 32 VBottom 2
WINDOW 3 32 32 VTop 2
SYMATTR InstName C1
SYMATTR Value 2n
SYMBOL voltage -80 -64 R0
SYMATTR InstName V1
SYMATTR Value 12
SYMBOL cap 288 -64 M180
WINDOW 0 24 56 Left 2
WINDOW 3 24 8 Left 2
SYMATTR InstName C2
SYMATTR Value 1µ
SYMBOL ind 480 224 R270
WINDOW 0 32 56 VTop 2
WINDOW 3 5 56 VBottom 2
SYMATTR InstName L1
SYMATTR Value 3.3µ
SYMATTR SpiceLine Ipk=8.7 Rser=0.0212 Rpar=310.86 Cpar=0 mfg="Coilcraft" pn="XAL5030-332"
SYMBOL cap 432 128 R0
SYMATTR InstName C3
SYMATTR Value .1µ
SYMBOL cap 592 224 R0
WINDOW 3 35 32 Left 2
WINDOW 123 26 57 Left 2
SYMATTR Value 47µ
SYMATTR Value2 x2
SYMATTR InstName C4
SYMATTR SpiceLine V=10 Irms=0 Rser=0.002 Lser=0
SYMBOL res 784 400 R0
SYMATTR InstName R2
SYMATTR Value 10K
SYMBOL cap 672 416 R0
SYMATTR InstName C5
SYMATTR Value 1n
SYMBOL res 688 224 R270
WINDOW 0 32 56 VTop 2
WINDOW 3 0 56 VBottom 2
SYMATTR InstName R4
SYMATTR Value 18m
SYMBOL PowerProducts\\LT8697 256 256 R0
SYMATTR InstName U1
SYMBOL res 816 224 R270
WINDOW 0 32 56 VTop 2
WINDOW 3 0 56 VBottom 2
SYMATTR InstName R3
SYMATTR Value 0.2
SYMBOL res 0 320 R270
WINDOW 0 32 56 VTop 2
WINDOW 3 0 56 VBottom 2
SYMATTR InstName R5
SYMATTR Value 16.5K
SYMBOL cap 0 -48 R0
SYMATTR InstName C6
SYMATTR Value 4.7µ
SYMATTR SpiceLine V=50 Irms=0 Rser=0.004 Lser=0
SYMBOL res 944 208 R0
SYMATTR InstName R6
SYMATTR Value 2.38
TEXT 592 576 Left 2 !.tran 1.2m startup
TEXT 368 -176 Bottom 2 ;LT8697 - USB 5V 2.5A Output, 42V Input Synchronous Buck with Cable Drop Compensation\n2MHz 5V Step-Down Converter with Cable Drop Compensation\nInput: 6V to 42V       Output: 5V @ 2.1A
TEXT -280 592 Left 2 ;Note:\n  If the simulation model is not found please update with the "Sync Release" command from the "Tools" menu.\n  It remains the customer's responsibility to verify proper and reliable operation in the actual application.\n  Component substitution and printed circuit board layout may significantly affect circuit performance or reliability.\n  Contact your local sales representative for assistance. This circuit is distributed to customers only for use with LTC parts.\n  Copyright © 2013 Linear Technology Inc. All rights reserved.
