Version 4
SHEET 1 1440 992
WIRE 240 -128 0 -128
WIRE 432 -128 304 -128
WIRE 256 -64 96 -64
WIRE 624 -64 256 -64
WIRE 736 -64 624 -64
WIRE 256 -48 256 -64
WIRE 624 -48 624 -64
WIRE 736 -48 736 -64
WIRE 0 0 0 -128
WIRE 16 0 0 0
WIRE 96 0 96 -64
WIRE 96 0 80 0
WIRE 112 0 96 0
WIRE 432 0 432 -128
WIRE 432 0 400 0
WIRE 624 48 624 16
WIRE 736 48 736 32
WIRE 736 48 624 48
WIRE 736 64 736 48
WIRE 0 96 0 0
WIRE 112 96 0 96
WIRE 624 96 624 48
WIRE 624 96 400 96
WIRE 112 192 96 192
WIRE 432 192 400 192
WIRE 432 208 432 192
WIRE 112 288 96 288
WIRE 432 288 432 272
WIRE 432 288 400 288
WIRE 480 288 432 288
WIRE 624 288 624 96
WIRE 624 288 560 288
WIRE 112 384 96 384
WIRE 816 384 400 384
WIRE 704 432 432 432
WIRE 0 480 0 96
WIRE 16 480 0 480
WIRE 112 480 80 480
WIRE 432 480 432 432
WIRE 432 480 400 480
WIRE 512 480 448 480
WIRE 624 480 624 288
WIRE 624 480 576 480
WIRE 0 576 0 480
WIRE 16 576 0 576
WIRE 112 576 96 576
WIRE 448 576 448 480
WIRE 448 576 400 576
WIRE 512 576 448 576
WIRE 624 576 624 480
WIRE 624 576 592 576
WIRE 448 592 448 576
WIRE 624 592 624 576
WIRE 880 592 880 576
WIRE 0 688 0 576
WIRE 192 688 192 624
WIRE 192 688 0 688
WIRE 320 688 320 624
WIRE 320 688 192 688
WIRE 448 688 448 672
WIRE 448 688 320 688
WIRE 624 688 624 656
WIRE 624 688 448 688
WIRE 704 688 704 432
WIRE 704 688 624 688
WIRE 720 688 704 688
WIRE 816 688 816 384
WIRE 816 688 800 688
WIRE 880 688 880 672
WIRE 880 688 816 688
FLAG 736 64 0
FLAG 880 576 0
FLAG 880 688 OUT
FLAG 736 -64 IN
SYMBOL res 112 560 R90
WINDOW 0 0 56 VBottom 2
WINDOW 3 32 56 VTop 2
SYMATTR InstName R1
SYMATTR Value 60.4K
SYMBOL cap 80 464 R90
WINDOW 0 0 32 VBottom 2
WINDOW 3 32 32 VTop 2
SYMATTR InstName C1
SYMATTR Value .001µ
SYMATTR SpiceLine ""
SYMBOL voltage 736 -64 R0
SYMATTR InstName V1
SYMATTR Value 12
SYMBOL cap 304 -112 M270
WINDOW 0 32 32 VTop 2
WINDOW 3 0 32 VBottom 2
SYMATTR InstName C2
SYMATTR Value 1µ
SYMBOL ind 464 304 R270
WINDOW 0 32 56 VTop 2
WINDOW 3 5 56 VBottom 2
SYMATTR InstName L1
SYMATTR Value 4.7µ
SYMATTR SpiceLine Rser=3m
SYMBOL cap 416 208 R0
SYMATTR InstName C3
SYMATTR Value .1µ
SYMBOL cap 608 592 R0
SYMATTR InstName C4
SYMATTR Value 47µ
SYMATTR SpiceLine Rser=0.002
SYMBOL res 608 560 R90
WINDOW 0 0 56 VBottom 2
WINDOW 3 32 56 VTop 2
SYMATTR InstName R2
SYMATTR Value 1Meg
SYMBOL res 432 576 R0
SYMATTR InstName R3
SYMATTR Value 412K
SYMBOL cap 576 464 R90
WINDOW 0 0 32 VBottom 2
WINDOW 3 32 32 VTop 2
SYMATTR InstName C5
SYMATTR Value 10p
SYMBOL PowerProducts\\LT8611 256 288 R0
SYMATTR InstName U1
SYMBOL res 704 704 R270
WINDOW 0 32 56 VTop 2
WINDOW 3 0 56 VBottom 2
SYMATTR InstName R4
SYMATTR Value 50m
SYMBOL cap 608 -48 R0
SYMATTR InstName C6
SYMATTR Value 4.7µ
SYMBOL res 864 688 M180
WINDOW 0 36 76 Left 2
WINDOW 3 36 40 Left 2
SYMATTR InstName Rload
SYMATTR Value 3.3
SYMATTR SpiceLine ""
SYMBOL cap 80 -16 R90
WINDOW 0 0 32 VBottom 2
WINDOW 3 32 32 VTop 2
SYMATTR InstName C7
SYMATTR Value 4.7µ
TEXT 936 688 Left 2 !.tran .8m startup
TEXT 384 -168 Bottom 2 ;LT8611 - 42V, 2.5A Synchronous Step-Down Regulator with Current Sense and 2.5µA Quiescent Current\n-3.3V Negative Converter with 1A Output Current Limit\nInput: 3.8V to 42V      Output: -3.3V @ 1A
TEXT -224 720 Left 2 ;Note:\n  A smaller value TR/SS capacitor is used to reduce simulation time. Typical value should be 0.1µF.\n  If the simulation model is not found please update with the "Sync Release" command from the "Tools" menu.\n  It remains the customer's responsibility to verify proper and reliable operation in the actual application.\n  Component substitution and printed circuit board layout may significantly affect circuit performance or reliability.\n  Contact your local sales representative for assistance. This circuit is distributed to customers only for use with LTC parts.\n  Copyright © 2012 Linear Technology Inc. All rights reserved.
