Version 4
SHEET 1 3488 3868
WIRE -416 736 -480 736
WIRE -240 736 -416 736
WIRE -160 736 -240 736
WIRE -96 736 -160 736
WIRE 32 736 -96 736
WIRE 672 736 32 736
WIRE 768 736 672 736
WIRE 864 736 768 736
WIRE 32 768 32 736
WIRE 672 768 672 736
WIRE 768 768 768 736
WIRE 864 768 864 736
WIRE -480 784 -480 736
WIRE 32 880 32 848
WIRE 160 880 32 880
WIRE 336 880 224 880
WIRE 496 880 336 880
WIRE 672 880 672 832
WIRE 672 880 576 880
WIRE 768 880 768 832
WIRE 768 880 672 880
WIRE 864 880 864 848
WIRE 864 880 768 880
WIRE 336 912 336 880
WIRE -96 944 -96 736
WIRE 32 976 32 880
WIRE -240 992 -240 736
WIRE 448 992 384 992
WIRE 336 1040 336 1008
WIRE 352 1040 336 1040
WIRE 448 1040 448 992
WIRE 448 1040 432 1040
WIRE 160 1056 80 1056
WIRE 336 1136 336 1040
WIRE 352 1136 336 1136
WIRE 448 1136 448 1040
WIRE 448 1136 416 1136
WIRE 336 1200 336 1136
WIRE 576 1200 336 1200
WIRE 448 1216 448 1136
WIRE -96 1232 -96 1008
WIRE -80 1232 -96 1232
WIRE 32 1232 32 1072
WIRE 32 1232 0 1232
WIRE 272 1232 32 1232
WIRE -416 1280 -416 736
WIRE -240 1296 -240 1056
WIRE -96 1296 -96 1232
WIRE -96 1296 -240 1296
WIRE 336 1296 336 1280
WIRE 336 1296 -96 1296
WIRE 528 1296 336 1296
WIRE 160 1312 160 1056
WIRE 272 1312 272 1232
WIRE 336 1312 336 1296
WIRE 448 1312 448 1280
WIRE -160 1360 -160 736
WIRE -64 1360 -160 1360
WIRE -160 1376 -160 1360
WIRE -64 1392 -64 1360
WIRE 96 1392 -64 1392
WIRE 528 1392 528 1296
WIRE 528 1392 512 1392
WIRE 96 1440 -64 1440
WIRE 576 1440 576 1200
WIRE 576 1440 512 1440
WIRE -160 1472 -160 1456
WIRE -64 1472 -64 1440
WIRE -64 1472 -160 1472
WIRE 96 1488 -48 1488
WIRE 576 1488 512 1488
WIRE 624 1488 576 1488
WIRE 720 1488 688 1488
WIRE -160 1536 -160 1472
WIRE -48 1536 -48 1488
WIRE 32 1536 -48 1536
WIRE 96 1536 32 1536
WIRE 720 1536 720 1488
WIRE 720 1536 512 1536
WIRE 768 1536 768 880
WIRE -48 1568 -48 1536
WIRE 96 1584 32 1584
WIRE 768 1632 768 1616
WIRE 768 1632 512 1632
WIRE 544 1680 512 1680
WIRE 560 1680 544 1680
WIRE 656 1680 640 1680
WIRE 32 1728 32 1584
WIRE 544 1728 544 1680
WIRE 656 1728 656 1680
WIRE 288 1760 288 1744
WIRE 400 1760 400 1744
WIRE -416 1840 -416 1360
WIRE -240 1840 -240 1296
WIRE -240 1840 -416 1840
WIRE -160 1840 -160 1616
WIRE -160 1840 -240 1840
WIRE -48 1840 -48 1632
WIRE -48 1840 -160 1840
WIRE 32 1840 32 1808
WIRE 32 1840 -48 1840
WIRE 160 1840 160 1744
WIRE 160 1840 32 1840
WIRE 288 1840 288 1824
WIRE 288 1840 160 1840
WIRE 400 1840 400 1824
WIRE 400 1840 288 1840
WIRE 544 1840 544 1792
WIRE 544 1840 400 1840
WIRE 656 1840 656 1792
WIRE 656 1840 544 1840
WIRE 720 1840 720 1536
WIRE 720 1840 656 1840
FLAG -480 784 0
FLAG -416 1840 IN
FLAG 864 880 OUT
FLAG 32 1536 INTVCC
FLAG 576 1488 INTVCC
SYMBOL LT8709 304 1520 R0
SYMATTR InstName U1
SYMBOL VOLTAGE -416 1264 R0
WINDOW 123 0 0 Left 2
WINDOW 39 13 98 Left 2
WINDOW 3 40 59 Left 2
SYMATTR SpiceLine Rser=1m
SYMATTR Value 7
SYMATTR InstName V1
SYMBOL ind2 16 864 M180
WINDOW 0 36 80 Left 2
WINDOW 3 36 40 Left 2
SYMATTR InstName L1
SYMATTR Value 2.2µ
SYMATTR SpiceLine Ipk=12 Rser=0.0059 Rpar=2435 Cpar=5.45p
SYMATTR Type ind
SYMBOL res 352 1296 R180
WINDOW 0 36 76 Left 2
WINDOW 3 36 40 Left 2
SYMATTR InstName R1
SYMATTR Value 7m
SYMBOL res 752 1520 R0
SYMATTR InstName R2
SYMATTR Value 130K
SYMBOL cap 656 768 R0
SYMATTR InstName C1
SYMATTR Value 200µ
SYMATTR SpiceLine Rser=1m
SYMBOL cap 528 1728 R0
SYMATTR InstName C2
SYMATTR Value 100p
SYMBOL cap 640 1728 R0
SYMATTR InstName C3
SYMATTR Value 2.2n
SYMBOL res 544 1696 R270
WINDOW 0 32 56 VTop 2
WINDOW 3 0 56 VBottom 2
SYMATTR InstName R3
SYMATTR Value 37.4K
SYMBOL cap 384 1760 R0
SYMATTR InstName C4
SYMATTR Value 10n
SYMBOL cap 272 1760 R0
SYMATTR InstName C5
SYMATTR Value 68n
SYMBOL res 16 1712 R0
SYMATTR InstName R4
SYMATTR Value 118K
SYMBOL res -176 1520 R0
SYMATTR InstName R5
SYMATTR Value 10K
SYMBOL res -176 1360 R0
SYMATTR InstName R6
SYMATTR Value 13.3K
SYMBOL cap -64 1568 R0
SYMATTR InstName C6
SYMATTR Value 2.2µ
SYMBOL cap 688 1472 R90
WINDOW 0 0 32 VBottom 2
WINDOW 3 32 32 VTop 2
SYMATTR InstName C7
SYMATTR Value 2.2µ
SYMBOL res 16 1216 R90
WINDOW 0 0 56 VBottom 2
WINDOW 3 32 56 VTop 2
SYMATTR InstName R7
SYMATTR Value 2m
SYMBOL cap -112 944 R0
SYMATTR InstName C8
SYMATTR Value 200µ
SYMATTR SpiceLine Rser=2m
SYMBOL POLCAP -256 992 R0
SYMATTR InstName C9
SYMATTR Value 330µ
SYMATTR SpiceLine Rser=100m
SYMBOL PMOS 384 912 M0
WINDOW 0 -5 20 Right 2
WINDOW 3 -7 53 Right 2
SYMATTR InstName Q1
SYMATTR Value Si4835DY
SYMBOL NMOS 80 976 M0
WINDOW 3 -6 59 Right 2
WINDOW 0 -6 28 Right 2
SYMATTR Value BSC0901NSI
SYMATTR InstName Q2
SYMBOL ind2 480 896 R270
WINDOW 0 32 56 VTop 2
WINDOW 3 5 56 VBottom 2
SYMATTR InstName L2
SYMATTR Value 2.2µ
SYMATTR SpiceLine Ipk=12 Rser=0.0059 Rpar=2435 Cpar=5.45p
SYMATTR Type ind
SYMBOL cap 224 864 R90
WINDOW 0 0 32 VBottom 2
WINDOW 3 32 32 VTop 2
SYMATTR InstName C10
SYMATTR Value 22µ
SYMBOL cap 432 1216 R0
SYMATTR InstName C11
SYMATTR Value 0.47µ
SYMATTR SpiceLine Rser=1m
SYMBOL res 448 1024 R90
WINDOW 0 0 56 VBottom 2
WINDOW 3 32 56 VTop 2
SYMATTR InstName R8
SYMATTR Value 499
SYMBOL schottky 416 1120 R90
WINDOW 0 0 32 VBottom 2
WINDOW 3 32 32 VTop 2
SYMATTR InstName D1
SYMATTR Value 1N5817
SYMATTR Description Diode
SYMATTR Type diode
SYMBOL POLCAP 752 768 R0
SYMATTR InstName C12
SYMATTR Value 330µ
SYMATTR SpiceLine Rser=100m
SYMBOL res 848 752 R0
SYMATTR InstName Rload
SYMATTR Value 2.7
TEXT 736 1792 Left 2 !.tran 3m startup
TEXT 48 712 Left 2 !K1 L1 L2 0.97
TEXT 232 688 Bottom 2 ;LT8709 - Negative Input Synchronous Multi-Topology DC/DC Controller\nNegative Boost Regulator with Output Current Monitor and Power Good Indication\nInput: -4.5V to -9V       Output: -12V @ 4.5A, Fsw = 300kHz
TEXT -376 1864 Left 2 ;Note:\n  If the simulation model is not found please update with the "Sync Release" command from the "Tools" menu.\n  It remains the customer's responsibility to verify proper and reliable operation in the actual application.\n  Component substitution and printed circuit board layout may significantly affect circuit performance or reliability.\n  Contact your local sales representative for assistance. This circuit is distributed to customers only for use with LTC parts.\n  Copyright © 2015 Linear Technology Inc. All rights reserved.
