Version 4
SHEET 1 10964 10608
WIRE 5600 3424 5504 3424
WIRE 5712 3424 5600 3424
WIRE 5824 3424 5712 3424
WIRE 6096 3424 5824 3424
WIRE 6432 3424 6192 3424
WIRE 6576 3424 6432 3424
WIRE 6704 3424 6576 3424
WIRE 6928 3424 6784 3424
WIRE 7072 3424 6928 3424
WIRE 7312 3424 7072 3424
WIRE 7456 3424 7408 3424
WIRE 7552 3424 7456 3424
WIRE 7648 3424 7552 3424
WIRE 7744 3424 7648 3424
WIRE 7824 3424 7744 3424
WIRE 5504 3440 5504 3424
WIRE 7552 3440 7552 3424
WIRE 7648 3440 7648 3424
WIRE 7824 3440 7824 3424
WIRE 5600 3456 5600 3424
WIRE 5712 3456 5712 3424
WIRE 6576 3456 6576 3424
WIRE 6928 3456 6928 3424
WIRE 6176 3520 6176 3472
WIRE 6528 3536 6512 3536
WIRE 6992 3536 6976 3536
WIRE 7552 3536 7552 3504
WIRE 7648 3536 7648 3504
WIRE 7824 3536 7824 3520
WIRE 5504 3552 5504 3520
WIRE 5600 3552 5600 3520
WIRE 5712 3552 5712 3520
WIRE 6576 3584 6576 3552
WIRE 6752 3584 6576 3584
WIRE 6928 3584 6928 3552
WIRE 6928 3584 6752 3584
WIRE 6752 3600 6752 3584
WIRE 6752 3600 6640 3600
WIRE 6752 3616 6752 3600
WIRE 6992 3648 6992 3536
WIRE 6640 3712 6640 3600
WIRE 6752 3712 6752 3696
WIRE 6848 3712 6752 3712
WIRE 6848 3728 6848 3712
WIRE 6752 3744 6752 3712
WIRE 6640 3824 6640 3792
WIRE 6672 3824 6640 3824
WIRE 6752 3824 6736 3824
WIRE 6768 3824 6752 3824
WIRE 6848 3824 6848 3808
WIRE 6848 3824 6832 3824
WIRE 6752 3856 6752 3824
WIRE 7216 3888 6304 3888
WIRE 7600 3888 7280 3888
WIRE 6304 3952 6304 3888
WIRE 6336 3952 6304 3952
WIRE 6432 3952 6432 3424
WIRE 6432 3952 6400 3952
WIRE 6512 3952 6512 3536
WIRE 6560 3952 6512 3952
WIRE 6640 3952 6640 3824
WIRE 6688 3952 6640 3952
WIRE 6848 3952 6848 3824
WIRE 6848 3952 6816 3952
WIRE 6992 3952 6992 3728
WIRE 6992 3952 6944 3952
WIRE 7072 3952 7072 3424
WIRE 7120 3952 7072 3952
WIRE 7200 3952 7184 3952
WIRE 7504 3952 7200 3952
WIRE 7600 3952 7600 3888
WIRE 7600 3952 7568 3952
WIRE 6176 4000 6176 3600
WIRE 6304 4000 6304 3952
WIRE 6432 4000 6432 3952
WIRE 6560 4000 6560 3952
WIRE 6688 4000 6688 3952
WIRE 6816 4000 6816 3952
WIRE 6944 4000 6944 3952
WIRE 7072 4000 7072 3952
WIRE 7200 4000 7200 3952
WIRE 7328 4000 7328 3472
WIRE 6128 4064 6064 4064
WIRE 7456 4064 7456 3424
WIRE 7456 4064 7376 4064
WIRE 5824 4128 5824 3424
WIRE 5952 4128 5824 4128
WIRE 6064 4128 6064 4064
WIRE 6064 4128 5952 4128
WIRE 6128 4128 6064 4128
WIRE 7456 4128 7456 4064
WIRE 7456 4128 7376 4128
WIRE 5952 4144 5952 4128
WIRE 7600 4144 7600 3952
WIRE 5824 4160 5824 4128
WIRE 7744 4160 7744 3424
WIRE 6064 4192 6064 4128
WIRE 6128 4192 6064 4192
WIRE 7456 4192 7456 4128
WIRE 7456 4192 7376 4192
WIRE 5952 4224 5952 4208
WIRE 5824 4256 5824 4240
WIRE 6128 4256 5824 4256
WIRE 7744 4256 7744 4240
WIRE 7744 4256 7376 4256
WIRE 5824 4272 5824 4256
WIRE 7744 4272 7744 4256
WIRE 6032 4320 6016 4320
WIRE 6128 4320 6112 4320
WIRE 7600 4320 7600 4224
WIRE 7600 4320 7376 4320
WIRE 5824 4368 5824 4352
WIRE 7744 4368 7744 4352
WIRE 6016 4384 6016 4320
WIRE 6128 4384 6016 4384
WIRE 7600 4384 7600 4320
WIRE 7600 4384 7376 4384
WIRE 6128 4448 6112 4448
WIRE 7488 4448 7376 4448
WIRE 7600 4448 7600 4384
WIRE 7600 4448 7568 4448
WIRE 7616 4448 7600 4448
WIRE 7696 4448 7680 4448
WIRE 6016 4512 6016 4384
WIRE 6128 4512 6016 4512
WIRE 7408 4512 7376 4512
WIRE 7600 4512 7600 4448
WIRE 7600 4512 7488 4512
WIRE 5968 4576 5952 4576
WIRE 6128 4576 6048 4576
WIRE 7488 4576 7376 4576
WIRE 7600 4576 7600 4512
WIRE 7600 4576 7568 4576
WIRE 6048 4640 6032 4640
WIRE 6128 4640 6112 4640
WIRE 7408 4640 7376 4640
WIRE 7600 4640 7600 4576
WIRE 7600 4640 7488 4640
WIRE 5904 4704 5824 4704
WIRE 6032 4704 5984 4704
WIRE 6128 4704 6032 4704
WIRE 7392 4704 7376 4704
WIRE 5824 4720 5824 4704
WIRE 6032 4720 6032 4704
WIRE 7392 4768 7376 4768
WIRE 5824 4800 5824 4784
WIRE 6032 4800 6032 4784
WIRE 6384 4816 6384 4800
WIRE 6704 4816 6704 4800
WIRE 7072 4816 7072 4800
FLAG 5504 3424 IN
FLAG 5824 4368 0
FLAG 5952 4224 0
FLAG 5952 4576 0
FLAG 6032 4640 0
FLAG 6032 4800 0
FLAG 5824 4800 0
FLAG 6384 4816 0
FLAG 6752 3744 0
FLAG 7824 3424 OUT
FLAG 7648 3536 0
FLAG 7824 3536 0
FLAG 7744 4368 0
FLAG 5504 3552 0
FLAG 7552 3536 0
FLAG 6752 3856 0
FLAG 6112 4448 0
FLAG 7072 4816 0
FLAG 5600 3552 0
FLAG 7696 4448 0
FLAG 7392 4704 0
FLAG 7392 4768 0
FLAG 5712 3552 0
SYMBOL LT8705 6704 4400 R0
SYMATTR InstName U1
SYMBOL voltage 5504 3424 R0
WINDOW 123 0 0 Left 2
WINDOW 39 0 0 Left 2
SYMATTR InstName V1
SYMATTR Value 36
SYMBOL cap 5584 3456 R0
SYMATTR InstName C1
SYMATTR Value 440µ
SYMATTR SpiceLine Rser=30m
SYMBOL res 6160 3504 R0
SYMATTR InstName R1
SYMATTR Value 2
SYMBOL res 6976 3632 R0
SYMATTR InstName R2
SYMATTR Value 2
SYMBOL res 6736 3600 R0
SYMATTR InstName R3
SYMATTR Value 10m
SYMBOL res 6624 3696 R0
SYMATTR InstName R4
SYMATTR Value 10
SYMBOL res 6832 3712 R0
SYMATTR InstName R5
SYMATTR Value 10
SYMBOL cap 6736 3808 R90
WINDOW 0 0 32 VBottom 2
WINDOW 3 32 32 VTop 2
SYMATTR InstName C2
SYMATTR Value 1n
SYMBOL cap 6832 3808 R90
WINDOW 0 0 32 VBottom 2
WINDOW 3 32 32 VTop 2
SYMATTR InstName C3
SYMATTR Value 1n
SYMBOL cap 6400 3936 R90
WINDOW 0 0 32 VBottom 2
WINDOW 3 32 32 VTop 2
SYMATTR InstName C4
SYMATTR Value 0.22µ
SYMBOL cap 7184 3936 R90
WINDOW 0 0 32 VBottom 2
WINDOW 3 32 32 VTop 2
SYMATTR InstName C5
SYMATTR Value 0.22µ
SYMBOL cap 7536 3440 R0
SYMATTR InstName C6
SYMATTR Value 18.8µ
SYMBOL cap 7632 3440 R0
SYMATTR InstName C7
SYMATTR Value 440µ
SYMATTR SpiceLine Rser=30m
SYMBOL res 7504 4624 R90
WINDOW 0 0 56 VBottom 2
WINDOW 3 32 56 VTop 2
SYMATTR InstName R6
SYMATTR Value 100K
SYMBOL res 7584 4592 M270
WINDOW 0 32 56 VTop 2
WINDOW 3 0 56 VBottom 2
SYMATTR InstName R7
SYMATTR Value 100K
SYMBOL res 7504 4496 R90
WINDOW 0 0 56 VBottom 2
WINDOW 3 32 56 VTop 2
SYMATTR InstName R8
SYMATTR Value 100K
SYMBOL res 7584 4464 M270
WINDOW 0 32 56 VTop 2
WINDOW 3 0 56 VBottom 2
SYMATTR InstName R9
SYMATTR Value 100K
SYMBOL res 7728 4144 R0
SYMATTR InstName R10
SYMATTR Value 392K
SYMBOL res 7728 4256 R0
SYMATTR InstName R11
SYMATTR Value 10K
SYMBOL res 7584 4128 R0
SYMATTR InstName R12
SYMATTR Value 4.02
SYMBOL cap 7616 4432 M90
WINDOW 0 0 32 VBottom 2
WINDOW 3 32 32 VTop 2
WINDOW 40 60 32 VTop 2
SYMATTR InstName C8
SYMATTR Value 4.7µ
SYMATTR SpiceLine2 x2
SYMBOL res 6128 4304 R90
WINDOW 0 0 56 VBottom 2
WINDOW 3 32 56 VTop 2
SYMATTR InstName R13
SYMATTR Value 100K
SYMBOL res 5808 4256 M180
WINDOW 0 36 76 Left 2
WINDOW 3 36 40 Left 2
SYMATTR InstName R14
SYMATTR Value 71.5K
SYMBOL res 5808 4256 R0
SYMATTR InstName R15
SYMATTR Value 20K
SYMBOL res 5952 4592 R270
WINDOW 0 32 56 VTop 2
WINDOW 3 0 56 VBottom 2
SYMATTR InstName R16
SYMATTR Value 210K
SYMBOL cap 5808 4720 R0
SYMATTR InstName C9
SYMATTR Value 3.3n
SYMBOL res 6000 4688 R90
WINDOW 0 0 56 VBottom 2
WINDOW 3 32 56 VTop 2
SYMATTR InstName R17
SYMATTR Value 56.2K
SYMBOL cap 6016 4720 R0
SYMATTR InstName C10
SYMATTR Value 220p
SYMBOL cap 6112 4656 M270
WINDOW 0 32 32 VTop 2
WINDOW 3 0 32 VBottom 2
SYMATTR InstName C11
SYMATTR Value 5n
SYMBOL cap 5936 4208 M180
WINDOW 0 24 56 Left 2
WINDOW 3 24 8 Left 2
SYMATTR InstName C12
SYMATTR Value 1µ
SYMBOL nmos 6096 3472 R270
WINDOW 0 55 48 VTop 2
WINDOW 3 -18 68 VLeft 2
SYMATTR InstName Q1
SYMATTR Value IRLR2908
SYMBOL ind 6688 3440 R270
WINDOW 0 32 56 VTop 2
WINDOW 3 5 56 VBottom 2
SYMATTR InstName L1
SYMATTR Value 22µ
SYMATTR SpiceLine Rser=14.6m
SYMBOL nmos 6528 3456 R0
SYMATTR InstName Q2
SYMATTR Value IRLR2908
SYMBOL nmos 6976 3456 M0
SYMATTR InstName Q3
SYMATTR Value IRLR2908
SYMBOL nmos 7408 3472 M270
WINDOW 0 60 41 VTop 2
WINDOW 3 -24 75 VLeft 2
SYMATTR InstName Q4
SYMATTR Value IRLR2908
SYMBOL schottky 7280 3904 M270
WINDOW 0 32 32 VTop 2
WINDOW 3 0 32 VBottom 2
SYMATTR InstName D1
SYMATTR Value MBRS1100
SYMATTR Description Diode
SYMATTR Type diode
SYMBOL schottky 7568 3968 M270
WINDOW 0 32 32 VTop 2
WINDOW 3 0 32 VBottom 2
SYMATTR InstName D2
SYMATTR Value MBRS1100
SYMATTR Description Diode
SYMATTR Type diode
SYMBOL cap 5696 3456 R0
SYMATTR InstName C13
SYMATTR Value 18.8µ
SYMBOL res 7808 3424 R0
SYMATTR InstName Rload
SYMATTR Value 9.6
TEXT 7576 4824 Left 2 !.tran 6m startup
TEXT 6744 3368 Bottom 2 ;LT8705 - 80V Vin and Vout Synchronous 4-Switch Buck- Boost DC/DC Controller\nTelecom Voltage Stabilizer\nInput: 36V to 80V       Output: 48V @ 5A
TEXT 6072 4864 Left 2 ;Note:\n  A smaller SS capacitor, C11, is being used to reduce simulation time. Typical value should be 1µF.\n  If the simulation model is not found please update with the "Sync Release" command from the "Tools" menu.\n  It remains the customer's responsibility to verify proper and reliable operation in the actual application.\n  Component substitution and printed circuit board layout may significantly affect circuit performance or reliability.\n  Contact your local sales representative for assistance. This circuit is distributed to customers only for use with LTC parts.\n  Copyright © 2013 Linear Technology Inc. All rights reserved.
