Version 4
SHEET 1 3068 2420
WIRE 304 -288 -176 -288
WIRE 416 -288 384 -288
WIRE 464 -288 416 -288
WIRE 624 -288 560 -288
WIRE -176 -160 -176 -288
WIRE -176 -160 -272 -160
WIRE -96 -160 -176 -160
WIRE 96 -160 -16 -160
WIRE 512 -160 96 -160
WIRE 528 -160 512 -160
WIRE 624 -160 624 -288
WIRE 624 -160 592 -160
WIRE 704 -160 624 -160
WIRE 736 -160 704 -160
WIRE 832 -160 816 -160
WIRE 880 -160 832 -160
WIRE 976 -160 880 -160
WIRE -272 -144 -272 -160
WIRE 880 -144 880 -160
WIRE 976 -144 976 -160
WIRE 96 -96 96 -160
WIRE 112 -96 96 -96
WIRE 256 -96 208 -96
WIRE 272 -96 256 -96
WIRE 368 -96 352 -96
WIRE 384 -96 368 -96
WIRE 512 -64 512 -160
WIRE 544 -64 512 -64
WIRE 640 -64 624 -64
WIRE 704 -64 704 -160
WIRE -272 -48 -272 -64
WIRE 880 -48 880 -80
WIRE 976 -48 976 -64
WIRE 256 -32 256 -96
WIRE 304 -32 256 -32
WIRE 192 0 192 -48
WIRE 304 0 304 -32
WIRE 368 0 368 -96
WIRE 480 0 480 -240
WIRE -176 16 -176 -160
WIRE -16 16 -176 16
WIRE -176 32 -176 16
WIRE -16 80 -16 16
WIRE 128 80 -16 80
WIRE 576 80 544 80
WIRE 608 80 576 80
WIRE -176 128 -176 112
WIRE 128 128 -176 128
WIRE 576 128 544 128
WIRE 592 128 576 128
WIRE 704 128 592 128
WIRE -176 144 -176 128
WIRE 704 144 704 128
WIRE 832 144 832 -160
WIRE 32 176 16 176
WIRE 128 176 112 176
WIRE 592 176 592 128
WIRE 592 176 544 176
WIRE -64 224 -96 224
WIRE 16 224 16 176
WIRE 16 224 0 224
WIRE 128 224 16 224
WIRE 704 224 704 208
WIRE 704 224 544 224
WIRE -176 240 -176 224
WIRE 32 272 16 272
WIRE 128 272 112 272
WIRE 832 272 832 224
WIRE 832 272 544 272
WIRE 816 320 544 320
WIRE 816 336 816 320
WIRE 576 384 544 384
WIRE 624 384 576 384
WIRE 736 384 704 384
WIRE 576 400 576 384
WIRE 736 400 736 384
WIRE 816 432 816 416
WIRE 192 448 192 432
WIRE 320 448 320 432
WIRE 432 448 432 432
WIRE 576 480 576 464
WIRE 736 480 736 464
WIRE 320 528 320 512
WIRE 432 528 432 512
FLAG 880 -48 0
FLAG 976 -48 0
FLAG -272 -48 0
FLAG 976 -160 OUT
FLAG 320 528 0
FLAG 576 480 0
FLAG 736 480 0
FLAG -176 240 0
FLAG 16 272 0
FLAG 432 528 0
FLAG 192 448 0
FLAG -96 224 0
FLAG -272 -160 IN
FLAG 384 -96 0
FLAG 816 432 0
FLAG 416 -288 ISP
FLAG 576 80 ISP
FLAG 576 128 IN
SYMBOL res 16 192 R270
WINDOW 0 32 56 VTop 2
WINDOW 3 0 56 VBottom 2
SYMATTR InstName R1
SYMATTR Value 100K
SYMBOL cap 528 -144 R270
WINDOW 0 32 32 VTop 2
WINDOW 3 0 32 VBottom 2
SYMATTR InstName C1
SYMATTR Value 44µ
SYMATTR SpiceLine Rser=2m
SYMBOL LT8714 336 208 R0
SYMATTR InstName U1
SYMATTR Description Synchronous Boost/Inverting DC/DC Converter with Soft-Start
SYMBOL ind2 -112 -144 R270
WINDOW 0 32 56 VTop 2
WINDOW 3 5 56 VBottom 2
SYMATTR InstName L1
SYMATTR Value 15µ
SYMATTR Type ind
SYMATTR SpiceLine Rser=13.9m
SYMBOL ind2 832 -144 M270
WINDOW 0 32 56 VTop 2
WINDOW 3 5 56 VBottom 2
SYMATTR InstName L2
SYMATTR Value 15µ
SYMATTR Type ind
SYMATTR SpiceLine Rser=13.9m
SYMBOL res 256 -80 R270
WINDOW 0 32 56 VTop 2
WINDOW 3 0 56 VBottom 2
SYMATTR InstName R2
SYMATTR Value 2m
SYMBOL res 288 -272 R270
WINDOW 0 32 56 VTop 2
WINDOW 3 0 56 VBottom 2
SYMATTR InstName R3
SYMATTR Value 7m
SYMBOL NMOS 112 -48 R270
WINDOW 3 -20 65 VLeft 2
WINDOW 0 74 46 VRight 2
SYMATTR Value BSC028N06LS3
SYMATTR InstName Q1
SYMBOL PMOS 560 -240 M270
WINDOW 0 54 37 VTop 2
WINDOW 3 -14 76 VLeft 2
SYMATTR InstName Q2
SYMATTR Value FDS4685
SYMBOL cap 304 448 R0
SYMATTR InstName C2
SYMATTR Value 68n
SYMBOL cap 416 448 R0
SYMATTR InstName C3
SYMATTR Value 10n
SYMBOL cap 560 400 R0
SYMATTR InstName C4
SYMATTR Value 100p
SYMBOL cap 720 400 R0
SYMATTR InstName C5
SYMATTR Value 10n
SYMBOL res 608 400 R270
WINDOW 0 32 56 VTop 2
WINDOW 3 0 56 VBottom 2
SYMATTR InstName R4
SYMATTR Value 6.98K
SYMBOL res 128 256 R90
WINDOW 0 0 56 VBottom 2
WINDOW 3 32 56 VTop 2
SYMATTR InstName R5
SYMATTR Value 178K
SYMBOL res -192 128 R0
SYMATTR InstName R6
SYMATTR Value 10K
SYMBOL res -192 16 R0
SYMATTR InstName R7
SYMATTR Value 57.6K
SYMBOL cap 0 208 R90
WINDOW 0 0 32 VBottom 2
WINDOW 3 32 32 VTop 2
SYMATTR InstName C6
SYMATTR Value 2.2µ
SYMBOL cap 864 -144 R0
SYMATTR InstName C7
SYMATTR Value 200µ
SYMATTR SpiceLine Rser=1m
SYMBOL cap 688 144 R0
SYMATTR InstName C8
SYMATTR Value 2.2µ
SYMBOL res 816 128 R0
SYMATTR InstName R8
SYMATTR Value 73.2K
SYMBOL VOLTAGE -272 -160 R0
WINDOW 123 0 0 Left 2
WINDOW 39 24 44 Left 2
SYMATTR InstName V1
SYMATTR Value 12
SYMBOL VOLTAGE 816 320 R0
WINDOW 123 0 0 Left 2
WINDOW 39 24 44 Left 2
SYMATTR InstName V2
SYMATTR Value PWL(0 0 10u 0 50u 0.1 3m 0.1 4m 1)
SYMBOL res 960 -160 R0
SYMATTR InstName Rload
SYMATTR Value 1
SYMBOL res 528 -48 R270
WINDOW 0 32 56 VTop 2
WINDOW 3 0 56 VBottom 2
SYMATTR InstName R9
SYMATTR Value 1
SYMBOL cap 640 -48 R270
WINDOW 0 32 32 VTop 2
WINDOW 3 0 32 VBottom 2
SYMATTR InstName C9
SYMATTR Value 88µ
SYMATTR SpiceLine Rser=2m
TEXT 792 512 Left 2 !.tran 5m startup
TEXT 368 -176 Bottom 2 !K1 L1 L2 .985
TEXT 432 560 Top 2 ;SS Cap 10nF for faster simulation
TEXT 400 -416 Center 2 ;LT8714 - Bipolar Output Synchronous Controller with Seamless Four Quadrant Operation\nFour Quadrant Converter with Power Good Indication\nInput: 10V to 14V       Output: -5V to 5V @ -5A to 5A, Fsw = 200kHz
TEXT -152 592 Left 2 ;Note:\n  If the simulation model is not found please update with the "Sync Release" command from the "Tools" menu.\n  It remains the customer's responsibility to verify proper and reliable operation in the actual application.\n  Component substitution and printed circuit board layout may significantly affect circuit performance or reliability.\n  Contact your local sales representative for assistance. This circuit is distributed to customers only for use with LTC parts.\n  Copyright © 2015 Linear Technology Inc. All rights reserved.
