Version 4
SHEET 1 3488 3868
WIRE -480 832 -544 832
WIRE -304 832 -480 832
WIRE -224 832 -304 832
WIRE -160 832 -224 832
WIRE -32 832 -160 832
WIRE 192 832 -32 832
WIRE 528 832 192 832
WIRE 688 832 528 832
WIRE 928 832 688 832
WIRE -544 880 -544 832
WIRE -32 896 -32 832
WIRE 640 912 192 912
WIRE 928 912 928 832
WIRE 688 928 688 832
WIRE 192 944 192 912
WIRE 448 960 240 960
WIRE -160 1040 -160 832
WIRE -304 1088 -304 832
WIRE -32 1088 -32 976
WIRE 80 1088 -32 1088
WIRE 192 1088 192 1040
WIRE 192 1088 144 1088
WIRE 320 1088 192 1088
WIRE 688 1088 688 992
WIRE 688 1088 400 1088
WIRE 800 1088 688 1088
WIRE 928 1088 928 992
WIRE 928 1088 800 1088
WIRE -32 1104 -32 1088
WIRE 160 1184 16 1184
WIRE -160 1232 -160 1104
WIRE -144 1232 -160 1232
WIRE -32 1232 -32 1200
WIRE -32 1232 -64 1232
WIRE 272 1232 -32 1232
WIRE -480 1280 -480 832
WIRE -304 1296 -304 1152
WIRE -160 1296 -160 1232
WIRE -160 1296 -304 1296
WIRE 336 1296 -160 1296
WIRE 160 1312 160 1184
WIRE 272 1312 272 1232
WIRE 336 1312 336 1296
WIRE 448 1312 448 960
WIRE 800 1328 800 1088
WIRE -224 1360 -224 832
WIRE -128 1360 -224 1360
WIRE -224 1376 -224 1360
WIRE -128 1392 -128 1360
WIRE 96 1392 -128 1392
WIRE 528 1392 528 832
WIRE 528 1392 512 1392
WIRE 96 1440 -128 1440
WIRE 640 1440 640 912
WIRE 640 1440 512 1440
WIRE -224 1472 -224 1456
WIRE -128 1472 -128 1440
WIRE -128 1472 -224 1472
WIRE 96 1488 -112 1488
WIRE 624 1488 512 1488
WIRE 672 1488 624 1488
WIRE 720 1488 672 1488
WIRE 672 1520 672 1488
WIRE 720 1520 720 1488
WIRE -224 1536 -224 1472
WIRE -112 1536 -112 1488
WIRE 96 1536 -112 1536
WIRE 544 1536 512 1536
WIRE 624 1536 624 1488
WIRE 624 1536 608 1536
WIRE -112 1568 -112 1536
WIRE 96 1584 -32 1584
WIRE 800 1632 800 1408
WIRE 800 1632 512 1632
WIRE 544 1680 512 1680
WIRE 560 1680 544 1680
WIRE 656 1680 640 1680
WIRE -32 1728 -32 1584
WIRE 544 1728 544 1680
WIRE 656 1728 656 1680
WIRE 288 1760 288 1744
WIRE 400 1760 400 1744
WIRE -480 1840 -480 1360
WIRE -304 1840 -304 1296
WIRE -304 1840 -480 1840
WIRE -224 1840 -224 1616
WIRE -224 1840 -304 1840
WIRE -112 1840 -112 1632
WIRE -112 1840 -224 1840
WIRE -32 1840 -32 1808
WIRE -32 1840 -112 1840
WIRE 160 1840 160 1744
WIRE 160 1840 -32 1840
WIRE 288 1840 288 1824
WIRE 288 1840 160 1840
WIRE 400 1840 400 1824
WIRE 400 1840 288 1840
WIRE 544 1840 544 1792
WIRE 544 1840 400 1840
WIRE 656 1840 656 1792
WIRE 656 1840 544 1840
WIRE 720 1840 720 1584
WIRE 720 1840 656 1840
FLAG -544 880 0
FLAG -480 1840 IN
FLAG 928 1088 OUT
FLAG 672 1520 0
SYMBOL LT8709 304 1520 R0
SYMATTR InstName U1
SYMBOL VOLTAGE -480 1264 R0
WINDOW 123 0 0 Left 2
WINDOW 39 13 98 Left 2
WINDOW 3 40 59 Left 2
SYMATTR SpiceLine Rser=1m
SYMATTR Value 12
SYMATTR InstName V1
SYMBOL ind2 -48 992 M180
WINDOW 0 36 80 Left 2
WINDOW 3 36 40 Left 2
SYMATTR InstName L1
SYMATTR Value 3.5µ
SYMATTR SpiceLine Ipk=12 Rser=0.0059 Rpar=2435 Cpar=5.45p mfg="Wurth Elektronik" pn="7443551730 WE-HCI 1365"
SYMATTR Type ind
SYMBOL res 176 816 R0
SYMATTR InstName R1
SYMATTR Value 6m
SYMBOL res 784 1312 R0
SYMATTR InstName R2
SYMATTR Value 130K
SYMBOL cap 672 928 R0
SYMATTR InstName C1
SYMATTR Value 66µ
SYMATTR SpiceLine Rser=1m
SYMBOL cap 528 1728 R0
SYMATTR InstName C2
SYMATTR Value 47p
SYMBOL cap 640 1728 R0
SYMATTR InstName C3
SYMATTR Value 4.7n
SYMBOL res 544 1696 R270
WINDOW 0 32 56 VTop 2
WINDOW 3 0 56 VBottom 2
SYMATTR InstName R3
SYMATTR Value 10K
SYMBOL cap 384 1760 R0
SYMATTR InstName C4
SYMATTR Value 10n
SYMBOL cap 272 1760 R0
SYMATTR InstName C5
SYMATTR Value 0.1µ
SYMBOL res -48 1712 R0
SYMATTR InstName R4
SYMATTR Value 88.7K
SYMBOL res -240 1520 R0
SYMATTR InstName R5
SYMATTR Value 10K
SYMBOL res -240 1360 R0
SYMATTR InstName R6
SYMATTR Value 13.3K
SYMBOL cap -128 1568 R0
SYMATTR InstName C6
SYMATTR Value 2.2µ
SYMBOL cap 608 1520 R90
WINDOW 0 0 32 VBottom 2
WINDOW 3 32 32 VTop 2
SYMATTR InstName C7
SYMATTR Value 2.2µ
SYMBOL res -48 1216 R90
WINDOW 0 0 56 VBottom 2
WINDOW 3 32 56 VTop 2
SYMATTR InstName R7
SYMATTR Value 2m
SYMBOL cap -176 1040 R0
SYMATTR InstName C8
SYMATTR Value 50µ
SYMATTR SpiceLine Rser=2m
SYMBOL POLCAP -320 1088 R0
SYMATTR InstName C9
SYMATTR Value 220µ
SYMATTR SpiceLine Rser=100m
SYMBOL PMOS 240 1040 R180
WINDOW 0 38 99 Right 2
WINDOW 3 44 -6 Right 2
SYMATTR InstName Q1
SYMATTR Value Si7465DP
SYMBOL NMOS 16 1104 M0
WINDOW 3 42 103 Right 2
WINDOW 0 3 31 Right 2
SYMATTR Value BSC028N06LS3
SYMATTR InstName Q2
SYMBOL cap 704 1520 R0
SYMATTR InstName C10
SYMATTR Value 2.2µ
SYMBOL ind2 304 1104 R270
WINDOW 0 32 56 VTop 2
WINDOW 3 5 56 VBottom 2
SYMATTR InstName L2
SYMATTR Value 3.5µ
SYMATTR SpiceLine Ipk=12 Rser=0.0059 Rpar=2435 Cpar=5.45p mfg="Wurth Elektronik" pn="7443551730 WE-HCI 1365"
SYMATTR Type ind
SYMBOL cap 144 1072 R90
WINDOW 0 0 32 VBottom 2
WINDOW 3 32 32 VTop 2
SYMATTR InstName C11
SYMATTR Value 44µ
SYMBOL res 912 896 R0
SYMATTR InstName Rload
SYMATTR Value 2.4
TEXT 736 1792 Left 2 !.tran 2m startup
TEXT 48 808 Left 2 !K1 L1 L2 0.97
TEXT -256 712 Left 2 ;LT8709 - Negative Input Synchronous Multi-Topology DC/DC Controller\nNegative Buck-Boost Regulator with Output Current Monitor and Power Good Indication\nInput: -4.5V to -38V       Output: -12V @ 5A with 12V Input, Fsw = 400kHz
TEXT -376 1864 Left 2 ;Note:\n  If the simulation model is not found please update with the "Sync Release" command from the "Tools" menu.\n  It remains the customer's responsibility to verify proper and reliable operation in the actual application.\n  Component substitution and printed circuit board layout may significantly affect circuit performance or reliability.\n  Contact your local sales representative for assistance. This circuit is distributed to customers only for use with LTC parts.\n  Copyright © 2015 Linear Technology Inc. All rights reserved.
