Version 4
SHEET 1 3488 3868
WIRE -384 944 -448 944
WIRE -240 944 -384 944
WIRE -160 944 -240 944
WIRE 16 944 -160 944
WIRE 176 944 16 944
WIRE 336 944 256 944
WIRE 368 944 336 944
WIRE 528 944 464 944
WIRE 544 944 528 944
WIRE 656 944 624 944
WIRE 720 944 656 944
WIRE 800 944 720 944
WIRE 880 944 800 944
WIRE 976 944 880 944
WIRE 1088 944 976 944
WIRE 976 960 976 944
WIRE 1088 960 1088 944
WIRE 880 976 880 944
WIRE -448 992 -448 944
WIRE -240 1040 -240 944
WIRE 336 1056 336 944
WIRE 880 1056 880 1040
WIRE 976 1056 976 1024
WIRE 1088 1056 1088 1040
WIRE 16 1088 16 944
WIRE 288 1136 160 1136
WIRE 336 1184 336 1152
WIRE 336 1184 272 1184
WIRE 336 1200 336 1184
WIRE -384 1280 -384 944
WIRE -240 1296 -240 1104
WIRE 16 1296 16 1152
WIRE 16 1296 -240 1296
WIRE 336 1296 336 1280
WIRE 336 1296 16 1296
WIRE 160 1312 160 1136
WIRE 272 1312 272 1184
WIRE 336 1312 336 1296
WIRE 448 1312 448 992
WIRE -160 1360 -160 944
WIRE -64 1360 -160 1360
WIRE -160 1376 -160 1360
WIRE -64 1392 -64 1360
WIRE 96 1392 -64 1392
WIRE 656 1392 656 944
WIRE 656 1392 512 1392
WIRE 96 1440 -64 1440
WIRE 528 1440 528 944
WIRE 528 1440 512 1440
WIRE -160 1472 -160 1456
WIRE -64 1472 -64 1440
WIRE -64 1472 -160 1472
WIRE 96 1488 -48 1488
WIRE 608 1488 512 1488
WIRE 720 1488 720 944
WIRE 720 1488 608 1488
WIRE -160 1536 -160 1472
WIRE -48 1536 -48 1488
WIRE 96 1536 -48 1536
WIRE 544 1536 512 1536
WIRE 608 1536 608 1488
WIRE 720 1536 720 1488
WIRE 800 1536 800 944
WIRE -48 1568 -48 1536
WIRE 96 1584 32 1584
WIRE 800 1632 800 1616
WIRE 800 1632 512 1632
WIRE 544 1680 512 1680
WIRE 560 1680 544 1680
WIRE 656 1680 640 1680
WIRE 32 1728 32 1584
WIRE 544 1728 544 1680
WIRE 656 1728 656 1680
WIRE 288 1760 288 1744
WIRE 400 1760 400 1744
WIRE -384 1840 -384 1360
WIRE -240 1840 -240 1296
WIRE -240 1840 -384 1840
WIRE -160 1840 -160 1616
WIRE -160 1840 -240 1840
WIRE -48 1840 -48 1632
WIRE -48 1840 -160 1840
WIRE 32 1840 32 1808
WIRE 32 1840 -48 1840
WIRE 160 1840 160 1744
WIRE 160 1840 32 1840
WIRE 288 1840 288 1824
WIRE 288 1840 160 1840
WIRE 400 1840 400 1824
WIRE 400 1840 288 1840
WIRE 544 1840 544 1792
WIRE 544 1840 400 1840
WIRE 656 1840 656 1792
WIRE 656 1840 544 1840
WIRE 720 1840 720 1600
WIRE 720 1840 656 1840
FLAG 880 1056 0
FLAG -448 992 0
FLAG 976 1056 0
FLAG 1088 1056 0
FLAG -384 1840 IN
FLAG 1088 944 OUT
SYMBOL LT8709 304 1520 R0
SYMATTR InstName U1
SYMBOL VOLTAGE -384 1264 R0
WINDOW 123 0 0 Left 2
WINDOW 39 13 98 Left 2
WINDOW 3 40 59 Left 2
WINDOW 0 17 9 Left 2
SYMATTR SpiceLine Rser=1m
SYMATTR Value 12
SYMATTR InstName V1
SYMBOL ind 272 960 M270
WINDOW 0 32 56 VTop 2
WINDOW 3 5 56 VBottom 2
SYMATTR InstName L1
SYMATTR Value 4.7µ
SYMATTR SpiceLine Ipk=12 Rser=0.0059 Rpar=2435 Cpar=5.45p
SYMBOL res 528 960 R270
WINDOW 0 32 56 VTop 2
WINDOW 3 0 56 VBottom 2
SYMATTR InstName R1
SYMATTR Value 8m
SYMBOL res 784 1520 R0
SYMATTR InstName R2
SYMATTR Value 60.4K
SYMBOL cap 864 976 R0
SYMATTR InstName C1
SYMATTR Value 400µ
SYMATTR SpiceLine Rser=1m
SYMBOL cap 528 1728 R0
SYMATTR InstName C2
SYMATTR Value 100p
SYMBOL cap 640 1728 R0
SYMATTR InstName C3
SYMATTR Value 3.3n
SYMBOL res 544 1696 R270
WINDOW 0 32 56 VTop 2
WINDOW 3 0 56 VBottom 2
SYMATTR InstName R3
SYMATTR Value 16.9K
SYMBOL cap 384 1760 R0
SYMATTR InstName C4
SYMATTR Value 10n
SYMBOL cap 272 1760 R0
SYMATTR InstName C5
SYMATTR Value 68n
SYMBOL res 16 1712 R0
SYMATTR InstName R4
SYMATTR Value 178K
SYMBOL res -176 1520 R0
SYMATTR InstName R5
SYMATTR Value 10K
SYMBOL res -176 1360 R0
SYMATTR InstName R6
SYMATTR Value 4.99K
SYMBOL cap -64 1568 R0
SYMATTR InstName C6
SYMATTR Value 2.2µ
SYMBOL cap 608 1520 R90
WINDOW 0 0 32 VBottom 2
WINDOW 3 32 32 VTop 2
SYMATTR InstName C7
SYMATTR Value 2.2µ
SYMBOL res 320 1184 R0
SYMATTR InstName R7
SYMATTR Value 1.5m
SYMBOL cap 0 1088 R0
SYMATTR InstName C8
SYMATTR Value 60µ
SYMATTR SpiceLine Rser=2m
SYMBOL POLCAP -256 1040 R0
SYMATTR InstName C9
SYMATTR Value 330µ
SYMATTR SpiceLine Rser=100m
SYMBOL POLCAP 960 960 R0
SYMATTR InstName C10
SYMATTR Value 330µ
SYMATTR SpiceLine Rser=30m
SYMBOL PMOS 368 992 R270
WINDOW 0 56 40 VTop 2
WINDOW 3 -10 76 VLeft 2
SYMATTR InstName Q1
SYMATTR Value Si7465DP
SYMBOL NMOS 288 1056 R0
WINDOW 3 40 103 Right 2
WINDOW 0 57 20 Left 2
SYMATTR Value FDS5670
SYMATTR InstName Q2
SYMBOL cap 704 1536 R0
SYMATTR InstName C11
SYMATTR Value 2.2µ
SYMBOL res 1072 944 R0
SYMATTR InstName Rload
SYMATTR Value 1.25
TEXT 808 1816 Left 2 !.tran 2m startup
TEXT 296 880 Bottom 2 ;LT8709 - Negative Input Synchronous Multi-Topology DC/DC Controller\nNegative Inverting Regulator with Output Current Monitor and Power Good Indication\nInput: -4.5V to -42V       Output: 5V @ 4A, Fsw = 200kHz
TEXT -264 1888 Left 2 ;Note:\n  If the simulation model is not found please update with the "Sync Release" command from the "Tools" menu.\n  It remains the customer's responsibility to verify proper and reliable operation in the actual application.\n  Component substitution and printed circuit board layout may significantly affect circuit performance or reliability.\n  Contact your local sales representative for assistance. This circuit is distributed to customers only for use with LTC parts.\n  Copyright © 2015 Linear Technology Inc. All rights reserved.
