Version 4
SHEET 1 3976 2420
WIRE -144 -352 -240 -352
WIRE -64 -352 -144 -352
WIRE 96 -352 -64 -352
WIRE 208 -352 96 -352
WIRE 400 -352 288 -352
WIRE 528 -352 400 -352
WIRE 688 -352 624 -352
WIRE 736 -352 688 -352
WIRE 864 -352 816 -352
WIRE 912 -352 864 -352
WIRE 992 -352 912 -352
WIRE 1104 -352 992 -352
WIRE -240 -336 -240 -352
WIRE -144 -336 -144 -352
WIRE 400 -336 400 -352
WIRE 912 -336 912 -352
WIRE 992 -336 992 -352
WIRE 1104 -336 1104 -352
WIRE 352 -256 192 -256
WIRE -240 -240 -240 -256
WIRE -144 -240 -144 -272
WIRE 912 -240 912 -272
WIRE 992 -240 992 -272
WIRE 1104 -240 1104 -256
WIRE 400 -192 400 -240
WIRE 400 -192 304 -192
WIRE 400 -176 400 -192
WIRE 608 -160 608 -304
WIRE 608 -160 480 -160
WIRE -64 -80 -64 -352
WIRE 400 -80 400 -96
WIRE 400 -80 368 -80
WIRE 400 -64 400 -80
WIRE 192 -16 192 -256
WIRE 304 -16 304 -192
WIRE 368 -16 368 -80
WIRE 480 -16 480 -160
WIRE -64 16 -64 0
WIRE 32 16 -64 16
WIRE -64 32 -64 16
WIRE 96 32 96 -352
WIRE 128 32 96 32
WIRE 688 32 688 -352
WIRE 688 32 544 32
WIRE 32 96 32 16
WIRE 128 96 32 96
WIRE 864 96 864 -352
WIRE 864 96 544 96
WIRE -64 128 -64 112
WIRE 128 160 0 160
WIRE 688 160 544 160
WIRE 864 160 864 96
WIRE 864 160 752 160
WIRE 0 224 0 160
WIRE 0 224 -16 224
WIRE 128 224 0 224
WIRE 560 224 544 224
WIRE 656 224 640 224
WIRE 128 288 16 288
WIRE 720 288 544 288
WIRE 864 288 864 160
WIRE 864 288 800 288
WIRE 0 352 0 224
WIRE 32 352 0 352
WIRE 128 352 112 352
WIRE 592 352 544 352
WIRE 640 352 592 352
WIRE 736 352 720 352
WIRE 592 368 592 352
WIRE 736 368 736 352
WIRE 208 416 208 400
WIRE 336 416 336 400
WIRE 448 416 448 400
WIRE 592 448 592 432
WIRE 736 448 736 432
WIRE 208 496 208 480
WIRE 448 496 448 480
WIRE 16 528 16 288
WIRE 864 528 864 288
WIRE 864 528 16 528
FLAG 1104 -352 OUT
FLAG 208 496 0
FLAG 592 448 0
FLAG 736 448 0
FLAG -64 128 0
FLAG 656 224 0
FLAG 448 496 0
FLAG 336 416 0
FLAG -80 224 0
FLAG 400 -64 0
FLAG 912 -240 0
FLAG -240 -240 0
FLAG 992 -240 0
FLAG -240 -352 IN
FLAG 1104 -240 0
FLAG -144 -240 0
SYMBOL voltage -240 -352 R0
WINDOW 123 24 138 Left 2
WINDOW 39 24 117 Left 2
SYMATTR Value 12
SYMATTR InstName V1
SYMBOL res -80 16 R0
SYMATTR InstName R1
SYMATTR Value 10K
SYMBOL res -80 -96 R0
SYMATTR InstName R2
SYMATTR Value 12.7K
SYMBOL res 544 208 M90
WINDOW 0 0 56 VBottom 2
WINDOW 3 32 56 VTop 2
SYMATTR InstName R3
SYMATTR Value 118K
SYMBOL cap -16 208 R90
WINDOW 0 0 32 VBottom 2
WINDOW 3 32 32 VTop 2
SYMATTR InstName C1
SYMATTR Value 2.2µ
SYMATTR SpiceLine Rser=2m
SYMBOL cap 192 416 R0
SYMATTR InstName C2
SYMATTR Value 47n
SYMATTR SpiceLine Rser=2m
SYMBOL cap 432 416 R0
SYMATTR InstName C3
SYMATTR Value 10n
SYMATTR SpiceLine Rser=2m
SYMBOL cap 576 368 R0
SYMATTR InstName C4
SYMATTR Value 100p
SYMBOL cap 720 368 R0
SYMATTR InstName C5
SYMATTR Value 4.7n
SYMBOL res 624 368 R270
WINDOW 0 32 56 VTop 2
WINDOW 3 0 56 VBottom 2
SYMATTR InstName R4
SYMATTR Value 12.1K
SYMBOL res 832 -336 M270
WINDOW 0 32 56 VTop 2
WINDOW 3 0 56 VBottom 2
SYMATTR InstName R5
SYMATTR Value 10m
SYMBOL res 384 -192 R0
WINDOW 3 27 80 Left 2
SYMATTR Value 5m
SYMATTR InstName R6
SYMBOL res 816 272 R90
WINDOW 0 0 56 VBottom 2
WINDOW 3 32 56 VTop 2
SYMATTR InstName R7
SYMATTR Value 274K
SYMBOL nmos 352 -336 R0
WINDOW 3 57 75 Left 2
WINDOW 0 58 18 Left 2
SYMATTR Value IPP039N04L
SYMATTR InstName Q1
SYMBOL pmos 528 -304 R270
WINDOW 0 56 43 VTop 2
WINDOW 3 -11 71 VLeft 2
SYMATTR InstName Q2
SYMATTR Value Si4401DY
SYMBOL polcap 1008 -336 M0
WINDOW 0 -31 6 Left 2
WINDOW 3 -45 57 Left 2
SYMATTR InstName C7
SYMATTR Value 330µ
SYMATTR SpiceLine Rser=16m
SYMBOL cap 896 -336 R0
WINDOW 3 19 56 Left 2
SYMATTR Value 10µ
SYMATTR InstName C8
SYMATTR SpiceLine Rser=0.002
SYMBOL res 16 368 R270
WINDOW 0 32 56 VTop 2
WINDOW 3 0 56 VBottom 2
SYMATTR InstName R8
SYMATTR Value 100K
SYMBOL LT8710 336 192 R0
SYMATTR InstName U1
SYMBOL cap 688 144 M90
WINDOW 0 0 32 VBottom 2
WINDOW 3 32 32 VTop 2
SYMATTR InstName C9
SYMATTR Value 2.2µ
SYMBOL ind2 192 -336 R270
WINDOW 0 32 56 VTop 2
WINDOW 3 4 56 VBottom 2
SYMATTR InstName L1
SYMATTR Value 10µ
SYMATTR Type ind
SYMATTR SpiceLine Rser=10m
SYMBOL load2 1104 -336 R0
WINDOW 123 0 0 Left 2
WINDOW 39 0 0 Left 2
WINDOW 0 21 -9 Left 2
SYMATTR InstName Iload
SYMATTR Value 2
SYMBOL polcap -128 -336 M0
WINDOW 0 -31 6 Left 2
WINDOW 3 -45 57 Left 2
SYMATTR InstName C6
SYMATTR Value 330µ
SYMATTR SpiceLine Rser=16m
TEXT 912 496 Left 2 !.tran 5m startup
TEXT -208 536 Left 2 ;Note:\n  If the simulation model is not found please update with the "Sync Release" command from the "Tools" menu.\n  It remains the customer's responsibility to verify proper and reliable operation in the actual application.\n  Component substitution and printed circuit board layout may significantly affect circuit performance or reliability.\n  Contact your local sales representative for assistance. This circuit is distributed to customers only for use with LTC parts.\n  Copyright © 2018 Analog Device Inc. All rights reserved.
TEXT 440 -408 Bottom 2 ;LT8710 - Synchronous SEPIC/ Inverting/Boost Controller with Output Current Control\nSynchronous Boost Converter with Output Current Monitoring\nInput: 10V to 14V     Output: 24V @ 2A (with 12Vin), Fsw = 300kHz
