Version 4
SHEET 1 2792 1436
WIRE 832 624 832 592
WIRE 832 736 832 704
WIRE 992 800 976 800
WIRE 1008 896 1008 880
WIRE 1008 976 1008 960
WIRE 1024 592 832 592
WIRE 1024 624 1024 592
WIRE 1024 720 1024 688
WIRE 1088 800 1072 800
WIRE 1120 720 1024 720
WIRE 1120 720 1120 624
WIRE 1136 880 1008 880
WIRE 1136 1040 1136 880
WIRE 1168 720 1120 720
WIRE 1168 800 1152 800
WIRE 1168 880 1136 880
WIRE 1328 592 1024 592
WIRE 1328 656 1328 592
WIRE 1328 976 1328 944
WIRE 1520 720 1488 720
WIRE 1520 880 1488 880
WIRE 1520 880 1520 784
WIRE 1584 624 1120 624
WIRE 1584 704 1584 624
WIRE 1600 800 1488 800
WIRE 1648 592 1328 592
WIRE 1648 608 1648 592
WIRE 1648 704 1584 704
WIRE 1648 704 1648 688
WIRE 1648 720 1648 704
WIRE 1648 880 1520 880
WIRE 1648 880 1648 816
WIRE 1648 912 1648 880
WIRE 1648 1008 1648 976
WIRE 1696 880 1648 880
WIRE 1824 880 1776 880
WIRE 1824 912 1824 880
WIRE 1824 1040 1136 1040
WIRE 1824 1040 1824 992
WIRE 1824 1056 1824 1040
WIRE 1824 1152 1824 1136
WIRE 1936 880 1824 880
WIRE 1936 976 1936 880
WIRE 1936 1152 1936 1040
WIRE 2048 880 1936 880
WIRE 2048 976 2048 880
WIRE 2048 1152 2048 1056
FLAG 2048 880 OUT
FLAG 832 736 0
FLAG 1936 1152 0
FLAG 2048 1152 0
FLAG 1824 1152 0
FLAG 976 800 0
FLAG 1648 1008 0
FLAG 1328 976 0
FLAG 1008 976 0
FLAG 832 592 IN
SYMBOL ind 1680 896 R270
WINDOW 0 32 56 VTop 0
WINDOW 3 5 56 VBottom 0
SYMATTR InstName L1
SYMATTR Value 10µ
SYMATTR SpiceLine Rser=0.002
SYMBOL NMOS 1600 720 R0
SYMATTR InstName Q1
SYMATTR Value Si4412DY
SYMBOL VOLTAGE 832 608 R0
SYMATTR InstName V1
SYMATTR Value 12
SYMATTR SpiceLine Rser=.0001
SYMBOL polcap 1920 976 R0
SYMATTR InstName C1
SYMATTR Value 200µ
SYMATTR SpiceLine Rser=0.025
SYMBOL cap 992 896 R0
SYMATTR InstName C2
SYMATTR Value 100p
SYMBOL cap 1088 784 M90
WINDOW 0 0 32 VBottom 0
WINDOW 3 32 32 VTop 0
SYMATTR InstName C3
SYMATTR Value 470p
SYMBOL RES 1808 1040 R0
SYMATTR InstName R1
SYMATTR Value 20K
SYMBOL res 1808 896 R0
SYMATTR InstName R2
SYMATTR Value 35.7K
SYMBOL res 976 784 M90
WINDOW 0 0 56 VBottom 0
WINDOW 3 32 56 VTop 0
SYMATTR InstName R3
SYMATTR Value 6.8K
SYMBOL schottky 1632 976 M180
WINDOW 0 24 72 Left 0
WINDOW 3 24 0 Left 0
SYMATTR InstName D1
SYMATTR Value MBRS340
SYMBOL cap 1504 720 R0
WINDOW 3 24 57 Left 0
SYMATTR Value .1µ
SYMATTR InstName C4
SYMBOL LOAD2 2048 976 R0
WINDOW 123 0 0 Left 0
WINDOW 39 25 112 Left 0
SYMATTR SpiceLine load
SYMATTR InstName I1
SYMATTR Value 3
SYMBOL cap 1008 624 R0
SYMATTR InstName C5
SYMATTR Value 1000p
SYMBOL POWERPRODUCTS\\LTC1624 1328 800 R0
SYMATTR InstName U1
SYMBOL res 1632 592 R0
SYMATTR InstName R4
SYMATTR Value .033
TEXT 1560 1104 Left 0 !.tran 1m startup
TEXT 1408 576 Bottom 0 ;LTC1624 - 200kHz, 3A, Step-Down Converter\nInput: 12V     Output: 3.3V @ 3A
TEXT 840 1160 Left 0 ;Note:\n  If the simulation model is not found please update with the "Sync Release" command from the "Tools" menu.\n  It remains the customer's responsibility to verify proper and reliable operation in the actual application.\n  Component substitution and printed circuit board layout may significantly affect circuit performance or reliability\n  Contact your local sales representative for assistance. This circuit is distributed to customers only for use with LTC parts\n  Copyright © 2006 Linear Technology Inc. All rights reserved.
