Version 4
SHEET 1 2872 2088
WIRE 1408 1024 1312 1024
WIRE 1744 1024 1408 1024
WIRE 2160 1024 1744 1024
WIRE 1312 1040 1312 1024
WIRE 1408 1040 1408 1024
WIRE 1744 1056 1744 1024
WIRE 1504 1120 1472 1120
WIRE 2160 1120 2160 1024
WIRE 2160 1120 1984 1120
WIRE 1312 1136 1312 1120
WIRE 1408 1136 1408 1104
WIRE 2160 1168 2160 1120
WIRE 1424 1248 1408 1248
WIRE 1504 1248 1488 1248
WIRE 2112 1248 1984 1248
WIRE 1504 1376 1472 1376
WIRE 2032 1376 1984 1376
WIRE 2160 1376 2160 1264
WIRE 2160 1376 2032 1376
WIRE 2208 1376 2160 1376
WIRE 2336 1376 2288 1376
WIRE 2400 1376 2336 1376
WIRE 2512 1376 2400 1376
WIRE 2400 1392 2400 1376
WIRE 2512 1392 2512 1376
WIRE 2032 1408 2032 1376
WIRE 2400 1488 2400 1456
WIRE 2512 1488 2512 1472
WIRE 1312 1504 1296 1504
WIRE 1392 1504 1376 1504
WIRE 1504 1504 1472 1504
WIRE 2032 1504 2032 1472
WIRE 2032 1504 1984 1504
WIRE 2032 1536 2032 1504
WIRE 1504 1632 1456 1632
WIRE 2032 1632 2032 1600
WIRE 2032 1632 1984 1632
WIRE 2160 1632 2160 1376
WIRE 2208 1632 2160 1632
WIRE 2304 1632 2272 1632
WIRE 2032 1648 2032 1632
WIRE 2160 1680 2160 1632
WIRE 2032 1728 2032 1712
WIRE 1504 1760 1456 1760
WIRE 2112 1760 1984 1760
WIRE 2160 1792 2160 1776
WIRE 1632 1840 1632 1824
WIRE 1856 1840 1856 1824
WIRE 1456 1872 1456 1760
WIRE 2336 1872 2336 1376
WIRE 2336 1872 1456 1872
FLAG 1632 1840 0
FLAG 1856 1840 0
FLAG 2160 1792 0
FLAG 2304 1632 0
FLAG 2400 1488 0
FLAG 1456 1632 0
FLAG 1296 1504 0
FLAG 1408 1248 0
FLAG 1312 1136 0
FLAG 2032 1728 0
FLAG 2512 1488 0
FLAG 2512 1376 OUT
FLAG 1312 1024 IN
FLAG 1408 1136 0
SYMBOL NMOS 2112 1168 R0
SYMATTR InstName Q1
SYMATTR Value Si4410DY
SYMBOL nmos 2112 1680 R0
SYMATTR InstName Q2
SYMATTR Value Si4410DY
SYMBOL schottky 2016 1600 M180
WINDOW 0 24 72 Left 2
WINDOW 3 24 0 Left 2
SYMATTR InstName D1
SYMATTR Value 1N5818
SYMBOL ind 2192 1392 R270
WINDOW 0 32 56 VTop 2
WINDOW 3 5 56 VBottom 2
SYMATTR InstName L1
SYMATTR Value 10µ
SYMBOL schottky 2272 1648 M270
WINDOW 0 32 32 VTop 2
WINDOW 3 0 32 VBottom 2
SYMATTR InstName D2
SYMATTR Value 1N5818
SYMBOL polcap 2384 1392 R0
WINDOW 3 37 35 Left 2
WINDOW 40 26 62 Left 2
SYMATTR InstName C1
SYMATTR Value 100µ
SYMATTR SpiceLine Rser=.05
SYMATTR SpiceLine2 x3
SYMBOL RES 1488 1488 R90
WINDOW 0 0 56 VBottom 2
WINDOW 3 32 56 VTop 2
SYMATTR InstName R1
SYMATTR Value 10K
SYMBOL cap 1376 1488 R90
WINDOW 0 0 32 VBottom 2
WINDOW 3 32 32 VTop 2
SYMATTR InstName C2
SYMATTR Value 2200p
SYMBOL cap 1488 1232 R90
WINDOW 0 0 32 VBottom 2
WINDOW 3 32 32 VTop 2
SYMATTR InstName C3
SYMATTR Value .01µ
SYMBOL VOLTAGE 1312 1024 R0
WINDOW 123 0 0 Left 2
WINDOW 39 0 0 Left 2
SYMATTR InstName V1
SYMATTR Value 16
SYMBOL cap 2016 1408 R0
SYMATTR InstName C4
SYMATTR Value .22µ
SYMBOL polcap 2016 1648 R0
SYMATTR InstName C5
SYMATTR Value 4.7µ
SYMBOL res 2496 1376 R0
SYMATTR InstName Rload
SYMATTR Value 2
SYMBOL POWERPRODUCTS\\LTC1625 1744 1440 R0
SYMATTR InstName U1
SYMBOL polcap 1392 1040 R0
WINDOW 3 37 35 Left 2
WINDOW 40 26 62 Left 2
SYMATTR InstName C6
SYMATTR Value 10µ
SYMATTR SpiceLine2 x2
TEXT 2360 1568 Left 2 !.tran 8m startup
TEXT 1864 1000 Bottom 2 ;LTC1625 - No Rsense Current Mode Synchronous Step-Down Switching Regulator\nHigh Efficiency Step-Down Converter\nInput: 5V to 28V      Output: 3.3V @ 4.5A
TEXT 1200 1872 Left 2 ;Notes:\n  RUN/SS capacitor has been reduced to speed up simulation time. Typical values should be 0.1µF.\n  If the simulation model is not found please update with the "Sync Release" command from the "Tools" menu.\n  It remains the customer's responsibility to verify proper and reliable operation in the actual application.\n  Component substitution and printed circuit board layout may significantly affect circuit performance or reliability.\n  Contact your local sales representative for assistance. This circuit is distributed to customers only for use with LTC parts.\n  Copyright © 2013 Linear Technology Inc. All rights reserved.
