Version 4
SHEET 1 1656 748
WIRE -48 160 -64 160
WIRE 32 160 16 160
WIRE 160 160 32 160
WIRE 224 160 160 160
WIRE 224 176 224 160
WIRE 32 208 32 160
WIRE -160 256 -272 256
WIRE -80 256 -160 256
WIRE 160 256 160 160
WIRE 160 256 144 256
WIRE -272 272 -272 256
WIRE 224 272 224 256
WIRE -160 288 -160 256
WIRE 304 336 144 336
WIRE 304 352 304 336
WIRE -272 368 -272 352
WIRE -160 416 -160 368
WIRE -80 416 -160 416
WIRE 160 416 144 416
WIRE 240 416 224 416
WIRE 304 448 304 432
WIRE -160 464 -160 416
WIRE 32 496 32 464
WIRE -160 560 -160 544
FLAG 32 496 0
FLAG 224 272 0
FLAG -272 368 0
FLAG -160 560 0
FLAG 304 448 0
FLAG 240 416 0
FLAG 304 336 OUT
FLAG -64 160 0
FLAG -272 256 IN
SYMBOL voltage 224 160 R0
WINDOW 123 24 138 Left 2
WINDOW 39 24 117 Left 2
SYMATTR InstName V1
SYMATTR Value 5
SYMBOL res -176 272 R0
SYMATTR InstName R1
SYMATTR Value .025
SYMBOL voltage -272 256 R0
WINDOW 0 24 96 Left 2
WINDOW 3 24 16 Left 2
WINDOW 123 24 -26 Left 2
WINDOW 39 24 -5 Left 2
SYMATTR InstName V2
SYMATTR Value 48
SYMBOL res 288 336 R0
SYMATTR InstName R2
SYMATTR Value 10K
SYMBOL cap 160 432 R270
WINDOW 0 32 32 VTop 2
WINDOW 3 0 32 VBottom 2
SYMATTR InstName C1
SYMATTR Value .1µ
SYMBOL cap 16 144 R90
WINDOW 0 0 32 VBottom 2
WINDOW 3 32 32 VTop 2
SYMATTR InstName C2
SYMATTR Value .1µ
SYMBOL Opamps\\LT1999-20 32 336 R0
SYMATTR InstName U1
SYMBOL load2 -160 464 R0
WINDOW 123 0 0 Left 2
WINDOW 39 0 0 Left 2
SYMATTR InstName I1
SYMATTR Value PULSE(5 -5 .1 50m 50m 100m 300m)
TEXT 160 496 Left 2 !.tran .5
TEXT 32 104 Bottom 2 ;LT1999-20 - High Voltage, Bidirectional Current Sense Amplifier\nHigh Voltage Bidirectional Current Sense\nInput: -5V to 80V     Output: Av = 20
TEXT -568 576 Left 2 ;Note:\n  If the simulation model is not found please update with the "Sync Release" command from the "Tools" menu.\n  It remains the customer's responsibility to verify proper and reliable operation in the actual application.\n  Component substitution and printed circuit board layout may significantly affect circuit performance or reliability.\n  Contact your local sales representative for assistance. This circuit is distributed to customers only for use with LTC parts.\n  Copyright © 2013 Linear Technology Inc. All rights reserved.
