Version 4
SHEET 1 3608 1756
WIRE 2000 960 1920 960
WIRE 2128 960 2000 960
WIRE 2416 960 2128 960
WIRE 2608 960 2416 960
WIRE 1920 976 1920 960
WIRE 2000 976 2000 960
WIRE 2128 992 2128 960
WIRE 2416 1024 2416 960
WIRE 1920 1072 1920 1056
WIRE 2000 1072 2000 1040
WIRE 2272 1088 2208 1088
WIRE 2608 1088 2608 960
WIRE 2608 1088 2560 1088
WIRE 2208 1136 2208 1088
WIRE 2208 1248 2208 1200
WIRE 2272 1248 2208 1248
WIRE 2624 1248 2560 1248
WIRE 2736 1248 2624 1248
WIRE 2624 1264 2624 1248
WIRE 2736 1264 2736 1248
WIRE 2208 1296 2208 1248
WIRE 2416 1328 2416 1312
WIRE 2624 1360 2624 1328
WIRE 2736 1360 2736 1344
WIRE 2128 1424 2128 1056
WIRE 2208 1424 2208 1360
WIRE 2208 1424 2128 1424
WIRE 2384 1424 2208 1424
WIRE 2624 1424 2448 1424
WIRE 2736 1424 2624 1424
WIRE 2624 1440 2624 1424
WIRE 2736 1440 2736 1424
WIRE 2624 1536 2624 1504
WIRE 2736 1536 2736 1520
FLAG 2416 1328 0
FLAG 2624 1360 0
FLAG 1920 1072 0
FLAG 2736 1360 0
FLAG 2736 1248 OUT1
FLAG 1920 960 IN
FLAG 2624 1536 0
FLAG 2736 1536 0
FLAG 2736 1424 OUT2
FLAG 2000 1072 0
SYMBOL POWERPRODUCTS\\LTC1983-3 2416 1168 R0
SYMATTR InstName U1
SYMBOL cap 2192 1136 R0
SYMATTR InstName C1
SYMATTR Value 1µ
SYMBOL cap 2608 1264 R0
SYMATTR InstName C2
SYMATTR Value 10µ
SYMBOL VOLTAGE 1920 960 R0
WINDOW 123 0 0 Left 2
WINDOW 39 0 0 Left 2
SYMATTR InstName V1
SYMATTR Value 3
SYMBOL RES 2720 1248 R0
SYMATTR InstName Rload1
SYMATTR Value 50
SYMBOL diode 2112 992 R0
SYMATTR InstName D1
SYMATTR Value 1N914
SYMBOL cap 2192 1296 R0
SYMATTR InstName C3
SYMATTR Value 1µ
SYMBOL diode 2384 1440 R270
WINDOW 0 32 32 VTop 2
WINDOW 3 0 32 VBottom 2
SYMATTR InstName D2
SYMATTR Value 1N914
SYMBOL cap 2608 1440 R0
SYMATTR InstName C4
SYMATTR Value 10µ
SYMBOL RES 2720 1424 R0
SYMATTR InstName Rload2
SYMATTR Value 50
SYMBOL cap 1984 976 R0
SYMATTR InstName C5
SYMATTR Value 10µ
TEXT 2808 1520 Left 2 !.tran 2m startup
TEXT 2464 944 Bottom 2 ;LTC1983 - 100mA Regulated Charge-Pump Inverter\nCombined Regulated Inverter & Unregulated Doubler\nInput : 3V to 5.5V     Output: -3V @ 100mA & Doubler
TEXT 1856 1544 Left 2 ;Note:\n  If the simulation model is not found please update with the "Sync Release" command from the "Tools" menu.\n  It remains the customer's responsibility to verify proper and reliable operation in the actual application.\n  Component substitution and printed circuit board layout may significantly affect circuit performance or reliability\n  Contact your local sales representative for assistance. This circuit is distributed to customers only for use with LTC parts\n  Copyright © 2013 Linear Technology Inc. All rights reserved.
TEXT 2792 1408 Left 2 ;Doubler = 2*Vin - 2*Vdiode
