Version 4
SHEET 1 2824 1896
WIRE 1200 1168 1200 1136
WIRE 1200 1280 1200 1248
WIRE 1216 1440 1216 1424
WIRE 1216 1536 1216 1504
WIRE 1264 1424 1216 1424
WIRE 1280 1136 1200 1136
WIRE 1280 1184 1280 1136
WIRE 1280 1280 1280 1248
WIRE 1360 1248 1360 1232
WIRE 1360 1344 1360 1312
WIRE 1360 1424 1344 1424
WIRE 1360 1440 1360 1424
WIRE 1360 1536 1360 1504
WIRE 1408 1536 1408 1520
WIRE 1408 1632 1408 1616
WIRE 1424 1232 1360 1232
WIRE 1424 1328 1424 1232
WIRE 1472 1232 1424 1232
WIRE 1472 1328 1424 1328
WIRE 1472 1424 1360 1424
WIRE 1472 1520 1408 1520
WIRE 1632 1136 1280 1136
WIRE 1632 1184 1632 1136
WIRE 1632 1584 1632 1568
WIRE 1824 1136 1632 1136
WIRE 1824 1232 1792 1232
WIRE 1824 1232 1824 1216
WIRE 1824 1536 1824 1232
WIRE 1824 1632 1824 1616
WIRE 1872 1424 1792 1424
WIRE 1920 1136 1824 1136
WIRE 1920 1184 1920 1136
WIRE 1920 1328 1792 1328
WIRE 1920 1328 1920 1264
WIRE 1920 1344 1920 1328
WIRE 1968 1328 1920 1328
WIRE 2064 1328 2032 1328
WIRE 2064 1344 2064 1328
WIRE 2064 1440 2064 1424
WIRE 2144 1328 2064 1328
WIRE 2240 1328 2208 1328
WIRE 2240 1376 2240 1328
WIRE 2240 1520 1792 1520
WIRE 2240 1520 2240 1456
WIRE 2240 1536 2240 1520
WIRE 2240 1632 2240 1616
WIRE 2352 1328 2240 1328
WIRE 2352 1376 2352 1328
WIRE 2352 1472 2352 1440
WIRE 2448 1328 2352 1328
WIRE 2448 1376 2448 1328
WIRE 2448 1472 2448 1440
WIRE 2544 1328 2448 1328
WIRE 2544 1360 2544 1328
WIRE 2544 1472 2544 1440
FLAG 1920 1440 0
FLAG 1408 1632 0
FLAG 2240 1632 0
FLAG 1632 1584 0
FLAG 2352 1472 0
FLAG 1360 1536 0
FLAG 1216 1536 0
FLAG 2544 1472 0
FLAG 1200 1280 0
FLAG 1360 1344 0
FLAG 1200 1136 IN
FLAG 2544 1328 OUT
FLAG 1280 1280 0
FLAG 2064 1440 0
FLAG 1824 1632 0
FLAG 2448 1472 0
SYMBOL NMOS 1872 1344 R0
WINDOW 0 63 23 Left 0
WINDOW 3 63 72 Left 0
SYMATTR InstName Q1
SYMATTR Value Si4840DY
SYMBOL RES 1392 1520 R0
SYMATTR InstName R1
SYMATTR Value 80.6K
SYMBOL res 2224 1520 R0
SYMATTR InstName R2
SYMATTR Value 12.4K
SYMBOL res 2224 1360 R0
SYMATTR InstName R3
SYMATTR Value 110K
SYMBOL ind2 1904 1168 R0
SYMATTR InstName L1
SYMATTR Value 4.6µ
SYMATTR SpiceLine Rser=0.010
SYMBOL schottky 2144 1344 R270
WINDOW 0 32 32 VTop 0
WINDOW 3 0 32 VBottom 0
SYMATTR InstName D1
SYMATTR Value MBR735
SYMBOL res 1360 1408 R90
WINDOW 0 0 56 VBottom 0
WINDOW 3 32 56 VTop 0
SYMATTR InstName R4
SYMATTR Value 33.2K
SYMBOL cap 1200 1440 R0
SYMATTR InstName C1
SYMATTR Value 6800p
SYMBOL cap 1344 1440 R0
SYMATTR InstName C2
SYMATTR Value 50p
SYMBOL POWERPRODUCTS\\LTC1871 1632 1376 R0
WINDOW 0 -13 -91 Left 0
SYMATTR InstName U1
SYMBOL VOLTAGE 1200 1152 R0
WINDOW 123 0 0 Left 0
WINDOW 39 -4 -48 Left 0
SYMATTR InstName V1
SYMATTR Value 15
SYMBOL polcap 1344 1248 R0
SYMATTR InstName C3
SYMATTR Value 4.7µ
SYMATTR SpiceLine Rser=0.05
SYMBOL ind2 2048 1440 M180
WINDOW 0 36 80 Left 0
WINDOW 3 36 40 Left 0
SYMATTR InstName L2
SYMATTR Value 4.6µ
SYMATTR SpiceLine Rser=0.010
SYMBOL load2 2544 1360 R0
WINDOW 123 0 0 Left 0
WINDOW 39 41 44 Left 0
WINDOW 3 19 89 Left 0
SYMATTR SpiceLine load
SYMATTR Value 2A
SYMATTR InstName I1
SYMBOL cap 1264 1184 R0
SYMATTR InstName C4
SYMATTR Value 33µ
SYMATTR SpiceLine Rser=0.002
SYMBOL cap 2032 1312 R90
WINDOW 0 0 32 VBottom 0
WINDOW 3 32 32 VTop 0
SYMATTR InstName C5
SYMATTR Value 10µ
SYMATTR SpiceLine Rser=0.002
SYMBOL polcap 2336 1376 R0
SYMATTR InstName C6
SYMATTR Value 150µ
SYMATTR Description Capacitor
SYMATTR Type cap
SYMATTR SpiceLine Rser=.01
SYMBOL res 1808 1520 R0
SYMATTR InstName R5
SYMATTR Value 133K
SYMBOL res 1808 1120 R0
SYMATTR InstName R6
SYMATTR Value 274K
SYMBOL cap 2432 1440 M180
WINDOW 0 24 64 Left 0
WINDOW 3 24 8 Left 0
SYMATTR InstName C7
SYMATTR Value 10µ
SYMATTR SpiceLine Rser=0.002
TEXT 2016 1224 Left 0 !K1 L1 L2 1
TEXT 1976 1608 Left 0 !.tran 1m startup
TEXT 1664 1120 Bottom 0 ;LTC1871 - 2A SEPIC DC/DC Converter\nInput: 5V-15V  Output: 12V@2A
TEXT 1168 1648 Left 0 ;Note:\n  If the simulation model is not found please update with the "Sync Release" command from the "Tools" menu.\n  It remains the customer's responsibility to verify proper and reliable operation in the actual application.\n  Component substitution and printed circuit board layout may significantly affect circuit performance or reliability\n  Contact your local sales representative for assistance. This circuit is distributed to customers only for use with LTC parts\n  Copyright © 2006 Linear Technology Inc. All rights reserved.
