Version 4
SHEET 1 2784 1828
WIRE 1280 1104 1168 1104
WIRE 1392 1104 1280 1104
WIRE 1632 1104 1392 1104
WIRE 1824 1104 1632 1104
WIRE 1888 1104 1824 1104
WIRE 2016 1104 1968 1104
WIRE 2080 1104 2016 1104
WIRE 2208 1104 2144 1104
WIRE 2272 1104 2208 1104
WIRE 2384 1104 2272 1104
WIRE 2496 1104 2384 1104
WIRE 1168 1120 1168 1104
WIRE 1280 1120 1280 1104
WIRE 1392 1120 1392 1104
WIRE 2272 1120 2272 1104
WIRE 2384 1120 2384 1104
WIRE 2496 1120 2496 1104
WIRE 1824 1136 1824 1104
WIRE 1632 1184 1632 1104
WIRE 2016 1184 2016 1104
WIRE 1168 1216 1168 1200
WIRE 1280 1216 1280 1184
WIRE 1392 1216 1392 1184
WIRE 2272 1216 2272 1184
WIRE 2384 1216 2384 1184
WIRE 2496 1216 2496 1200
WIRE 1472 1232 1456 1232
WIRE 1824 1232 1824 1216
WIRE 1824 1232 1792 1232
WIRE 1968 1264 1904 1264
WIRE 1376 1328 1360 1328
WIRE 1456 1328 1456 1232
WIRE 1456 1328 1440 1328
WIRE 1472 1328 1456 1328
WIRE 2016 1328 2016 1280
WIRE 2016 1328 1792 1328
WIRE 2016 1344 2016 1328
WIRE 2208 1360 2208 1104
WIRE 1152 1424 1104 1424
WIRE 1264 1424 1232 1424
WIRE 1472 1424 1264 1424
WIRE 1904 1424 1904 1264
WIRE 1904 1424 1792 1424
WIRE 1104 1440 1104 1424
WIRE 1264 1440 1264 1424
WIRE 2016 1440 2016 1424
WIRE 1104 1520 1104 1504
WIRE 1264 1520 1264 1504
WIRE 1376 1520 1360 1520
WIRE 1472 1520 1456 1520
WIRE 2208 1520 2208 1440
WIRE 2208 1520 1792 1520
WIRE 2224 1520 2208 1520
WIRE 2320 1520 2304 1520
WIRE 1632 1584 1632 1568
FLAG 2016 1440 0
FLAG 1360 1520 0
FLAG 2320 1520 0
FLAG 1632 1584 0
FLAG 2384 1216 0
FLAG 1264 1520 0
FLAG 1104 1520 0
FLAG 2496 1216 0
FLAG 1168 1216 0
FLAG 1360 1328 0
FLAG 2496 1104 OUT
FLAG 1280 1216 0
FLAG 1168 1104 IN
FLAG 1392 1216 0
FLAG 2272 1216 0
SYMBOL NMOS 1968 1184 R0
SYMATTR InstName Q1
SYMATTR Value IRF7811
SYMBOL RES 1472 1504 R90
WINDOW 0 0 56 VBottom 2
WINDOW 3 32 56 VTop 2
SYMATTR InstName R1
SYMATTR Value 100K
SYMBOL res 2208 1536 R270
WINDOW 0 32 56 VTop 2
WINDOW 3 0 56 VBottom 2
SYMATTR InstName R2
SYMATTR Value 12.4K
SYMBOL res 2192 1344 R0
SYMATTR InstName R3
SYMATTR Value 412K
SYMBOL ind 1872 1120 R270
WINDOW 0 32 56 VTop 2
WINDOW 3 5 56 VBottom 2
SYMATTR InstName L1
SYMATTR Value 6.8µ
SYMBOL schottky 2080 1120 R270
WINDOW 0 32 32 VTop 2
WINDOW 3 0 32 VBottom 2
SYMATTR InstName D1
SYMATTR Value MBR735
SYMBOL polcap 2368 1120 R0
WINDOW 40 28 62 Left 2
WINDOW 3 40 38 Left 2
SYMATTR SpiceLine2 x2
SYMATTR Value 68µ
SYMATTR InstName C1
SYMATTR SpiceLine Rser=.05
SYMBOL res 1248 1408 R90
WINDOW 0 0 56 VBottom 2
WINDOW 3 32 56 VTop 2
SYMATTR InstName R4
SYMATTR Value 24K
SYMBOL cap 1088 1440 R0
SYMATTR InstName C2
SYMATTR Value 2200p
SYMBOL cap 1248 1440 R0
SYMATTR InstName C3
SYMATTR Value 100p
SYMBOL VOLTAGE 1168 1104 R0
WINDOW 123 0 0 Left 2
WINDOW 39 0 0 Left 2
SYMATTR InstName V1
SYMATTR Value 18
SYMBOL polcap 1264 1120 R0
SYMATTR InstName C4
SYMATTR Value 560µ
SYMBOL PowerProducts\\LTC1871-7 1632 1376 R0
SYMATTR InstName U1
SYMBOL cap 1440 1312 R90
WINDOW 0 0 32 VBottom 2
WINDOW 3 32 32 VTop 2
SYMATTR InstName C5
SYMATTR Value 4.7µ
SYMBOL res 1808 1120 R0
SYMATTR InstName R5
SYMATTR Value 1Meg
SYMBOL cap 1376 1120 R0
WINDOW 3 34 30 Left 2
WINDOW 39 24 55 Left 2
SYMATTR Value 10µ
SYMATTR SpiceLine x2
SYMATTR InstName C6
SYMBOL res 2000 1328 R0
SYMATTR InstName R6
SYMATTR Value 5m
SYMBOL cap 2256 1120 R0
WINDOW 3 41 34 Left 2
WINDOW 40 25 59 Left 2
SYMATTR Value 10µ
SYMATTR SpiceLine2 x2
SYMATTR InstName C7
SYMATTR SpiceLine Rser=1m
SYMBOL res 2480 1104 R0
SYMATTR InstName Rload
SYMATTR Value 28
TEXT 2328 1312 Left 2 !.tran .7m startup
TEXT 1816 1056 Bottom 2 ;LTC1871-7 - High Input Voltage, Current Mode Boost, Flyback and SEPIC Controller\nHigh Efficiency 42V, 1.5A Automotive Boost Converter\nInput: 8V to 28V       Output: 42V @ 1.5A
TEXT 1128 1592 Left 2 ;Note:\n  If the simulation model is not found please update with the "Sync Release" command from the "Tools" menu.\n  It remains the customer's responsibility to verify proper and reliable operation in the actual application.\n  Component substitution and printed circuit board layout may significantly affect circuit performance or reliability.\n  Contact your local sales representative for assistance. This circuit is distributed to customers only for use with LTC parts.\n  Copyright © 2012 Linear Technology Inc. All rights reserved.
