Version 4
SHEET 1 1832 884
WIRE -352 -64 -352 -96
WIRE -352 64 -352 16
WIRE -272 -96 -352 -96
WIRE -272 -48 -272 -96
WIRE -272 64 -272 16
WIRE -192 48 -192 16
WIRE -192 144 -192 112
WIRE -192 304 -208 304
WIRE -160 384 -160 368
WIRE -160 464 -160 448
WIRE -96 112 -112 112
WIRE -96 304 -112 304
WIRE -96 368 -160 368
WIRE -16 -96 -272 -96
WIRE -16 -80 -16 -96
WIRE -16 16 -192 16
WIRE -16 16 -16 0
WIRE -16 32 -16 16
WIRE 16 464 16 448
WIRE 96 -96 -16 -96
WIRE 96 32 96 -96
WIRE 176 464 176 448
WIRE 208 -96 96 -96
WIRE 208 -80 208 -96
WIRE 208 0 208 -16
WIRE 208 32 208 0
WIRE 320 0 208 0
WIRE 320 32 320 0
WIRE 320 144 320 96
WIRE 320 176 288 176
WIRE 320 176 320 144
WIRE 320 304 288 304
WIRE 320 368 288 368
WIRE 400 304 320 304
WIRE 432 112 288 112
WIRE 432 240 288 240
WIRE 480 -96 208 -96
WIRE 480 32 480 -96
WIRE 480 144 320 144
WIRE 480 144 480 128
WIRE 480 160 480 144
WIRE 480 272 480 256
WIRE 496 304 464 304
WIRE 592 304 576 304
WIRE 592 368 320 368
WIRE 592 368 592 304
WIRE 608 144 480 144
WIRE 608 176 608 144
WIRE 608 256 608 240
WIRE 688 144 608 144
WIRE 752 272 752 208
WIRE 752 368 592 368
WIRE 752 368 752 336
WIRE 768 208 752 208
WIRE 864 144 768 144
WIRE 864 208 848 208
WIRE 864 208 864 144
WIRE 864 272 864 208
WIRE 864 368 752 368
WIRE 864 368 864 352
WIRE 864 384 864 368
WIRE 864 480 864 464
WIRE 976 144 864 144
WIRE 976 160 976 144
WIRE 976 256 976 224
WIRE 1072 144 976 144
WIRE 1072 160 1072 144
WIRE 1072 256 1072 224
WIRE 1152 144 1072 144
WIRE 1152 160 1152 144
WIRE 1152 256 1152 240
FLAG 480 272 0
FLAG 976 256 0
FLAG 864 480 0
FLAG -160 464 0
FLAG 1152 144 OUT
FLAG -352 -96 IN
FLAG -112 112 0
FLAG 16 464 0
FLAG 176 464 0
FLAG 1072 256 0
FLAG 1152 256 0
FLAG 608 256 0
FLAG -272 64 0
FLAG -352 64 0
FLAG -192 144 0
FLAG -208 304 0
SYMBOL ind 672 160 R270
WINDOW 0 32 56 VTop 0
WINDOW 3 5 56 VBottom 0
SYMATTR InstName L1
SYMATTR Value 1µ
SYMATTR SpiceLine Rser=2m
SYMBOL res 848 256 R0
WINDOW 3 32 68 Left 0
SYMATTR Value 15.8K
SYMATTR InstName R1
SYMBOL res 848 368 R0
SYMATTR Value 12.7K
SYMATTR InstName R2
SYMBOL polcap -288 -48 R0
SYMATTR InstName C1
SYMATTR Value 330µ
SYMATTR SpiceLine Rser=0.023
SYMBOL res -32 -96 R0
SYMATTR InstName R3
SYMATTR Value 10
SYMBOL cap -208 48 R0
SYMATTR InstName C2
SYMATTR Value 10µ
SYMATTR SpiceLine Rser=7m
SYMBOL cap 304 96 M180
WINDOW 0 24 64 Left 0
WINDOW 3 24 8 Left 0
SYMATTR InstName C3
SYMATTR Value 1µ
SYMBOL schottky 192 -80 R0
WINDOW 3 36 58 Left 0
WINDOW 0 35 11 Left 0
SYMATTR Value MBR0520L
SYMATTR InstName D1
SYMBOL polcap 960 160 R0
WINDOW 40 24 85 Left 0
SYMATTR SpiceLine2 x4
SYMATTR InstName C4
SYMATTR Value 180µ
SYMATTR SpiceLine Rser=0.0135
SYMBOL cap 464 288 R90
WINDOW 0 0 32 VBottom 0
WINDOW 3 32 32 VTop 0
SYMATTR InstName C5
SYMATTR Value 330p
SYMBOL res 480 320 R270
WINDOW 0 32 56 VTop 0
WINDOW 3 0 56 VBottom 0
SYMATTR InstName R4
SYMATTR Value 34K
SYMBOL res -96 288 R90
WINDOW 0 0 56 VBottom 0
WINDOW 3 32 56 VTop 0
SYMATTR InstName R5
SYMATTR Value 11.5K
SYMBOL cap -176 384 R0
SYMATTR Value .01µ
SYMATTR InstName C6
SYMBOL voltage -352 -80 R0
SYMATTR InstName V1
SYMATTR Value 5
SYMBOL cap 736 272 R0
SYMATTR InstName C7
SYMATTR Value 680p
SYMBOL cap 304 368 M180
WINDOW 0 38 46 Left 0
WINDOW 3 38 22 Left 0
SYMATTR InstName C8
SYMATTR Value 39p
SYMBOL nmos 432 160 R0
WINDOW 3 55 76 Left 0
SYMATTR Value Si4864DY
SYMATTR InstName Q1
SYMBOL nmos 432 32 R0
WINDOW 3 54 63 Left 0
SYMATTR Value Si4408DY
SYMATTR InstName Q2
SYMBOL res 752 224 R270
WINDOW 0 32 56 VTop 0
WINDOW 3 0 56 VBottom 0
SYMATTR InstName R6
SYMATTR Value 1.75K
SYMBOL schottky 592 240 M180
WINDOW 0 21 68 Left 0
WINDOW 3 24 0 Left 0
SYMATTR InstName D2
SYMATTR Value MBRS340
SYMATTR Description Diode
SYMATTR Type diode
SYMBOL current 1152 160 R0
WINDOW 3 22 75 Left 0
WINDOW 123 0 0 Left 0
WINDOW 39 0 0 Left 0
SYMATTR Value 15A
SYMATTR InstName I1
SYMBOL PowerProducts\\LTC1702A 96 240 R0
SYMATTR InstName U1
SYMBOL cap 1056 160 R0
SYMATTR InstName C9
SYMATTR Value 1µ
SYMATTR SpiceLine Rser=0.009
TEXT 998 368 Left 0 !.tran 5m startup
TEXT 976 80 Top 0 ;Panasonic SP-CAP\nEEFUE0G181R
TEXT 728 56 Center 0 ;Sumida\nCEP125-1R0MC-HD
TEXT 264 -192 Center 0 ;LTC1702A - 15A 550kHz Synchronous Buck Converter\nInput: 5V      Output: 1.8V@15A
TEXT -112 -120 Left 0 ;Note: LTC1702A has two phases.  Only one phase is modeled here.
TEXT -320 488 Left 0 ;Note:\n  If the simulation model is not found please update with the "Sync Release" command from the "Tools" menu.\n  It remains the customer's responsibility to verify proper and reliable operation in the actual application.\n  Component substitution and printed circuit board layout may significantly affect circuit performance or reliability\n  Contact your local sales representative for assistance. This circuit is distributed to customers only for use with LTC parts\n  Copyright © 2006 Linear Technology Inc. All rights reserved.
TEXT 1200 200 Left 0 ;Active load
