Version 4
SHEET 1 2668 936
WIRE -432 272 -448 272
WIRE -336 272 -352 272
WIRE -336 528 -336 272
WIRE -304 352 -304 336
WIRE -304 448 -304 416
WIRE -272 336 -304 336
WIRE -256 528 -336 528
WIRE -160 336 -192 336
WIRE -160 352 -160 336
WIRE -160 448 -160 416
WIRE -112 208 -144 208
WIRE -96 416 -96 400
WIRE -96 528 -176 528
WIRE -96 528 -96 496
WIRE -16 80 -48 80
WIRE -16 144 -48 144
WIRE -16 208 -48 208
WIRE -16 272 -336 272
WIRE -16 336 -160 336
WIRE -16 400 -96 400
WIRE 80 -112 80 -128
WIRE 80 16 80 -32
WIRE 80 496 80 464
WIRE 240 -128 80 -128
WIRE 240 -112 240 -128
WIRE 240 -16 240 -32
WIRE 240 16 240 -16
WIRE 240 496 240 464
WIRE 368 -16 240 -16
WIRE 384 144 336 144
WIRE 384 208 336 208
WIRE 384 272 336 272
WIRE 384 528 -96 528
WIRE 384 528 384 272
WIRE 384 608 384 592
WIRE 464 80 336 80
WIRE 464 336 336 336
WIRE 512 -128 240 -128
WIRE 512 0 512 -128
WIRE 512 144 384 144
WIRE 512 144 512 96
WIRE 512 256 512 144
WIRE 512 368 512 352
WIRE 528 144 512 144
WIRE 576 -128 512 -128
WIRE 576 -96 576 -128
WIRE 576 0 576 -32
WIRE 656 144 608 144
WIRE 656 224 656 144
WIRE 656 400 336 400
WIRE 656 400 656 304
WIRE 656 416 656 400
WIRE 656 512 656 496
WIRE 688 -128 576 -128
WIRE 688 -112 688 -128
WIRE 688 0 688 -32
WIRE 752 144 656 144
WIRE 752 192 752 144
WIRE 752 400 656 400
WIRE 752 400 752 256
WIRE 832 144 752 144
WIRE 832 192 832 144
WIRE 832 288 832 256
WIRE 912 144 832 144
WIRE 912 192 912 144
WIRE 912 288 912 256
WIRE 976 144 912 144
WIRE 976 192 976 144
WIRE 976 288 976 256
WIRE 1056 144 976 144
WIRE 1056 176 1056 144
WIRE 1056 288 1056 256
FLAG 688 0 0
FLAG 1056 144 OUT
FLAG 688 -128 IN
FLAG 576 0 0
FLAG 656 512 0
FLAG 384 608 0
FLAG 240 496 0
FLAG 80 496 0
FLAG 368 48 0
FLAG -48 80 0
FLAG -48 144 0
FLAG -144 208 0
FLAG -448 272 0
FLAG -304 448 0
FLAG -160 448 0
FLAG 512 368 0
FLAG 832 288 0
FLAG 912 288 0
FLAG 976 288 0
FLAG 1056 288 0
SYMBOL PowerProducts\\LTC1778 160 240 R0
SYMATTR InstName U1
SYMBOL nmos 464 0 R0
SYMATTR InstName Q1
SYMATTR Value Si4884DY
SYMBOL nmos 464 256 R0
SYMATTR InstName Q2
SYMATTR Value Si4874DY
SYMBOL cap 368 144 R0
WINDOW 0 40 16 Left 0
WINDOW 3 42 44 Left 0
SYMATTR InstName C1
SYMATTR Value .22µ
SYMBOL cap 368 528 R0
WINDOW 0 33 8 Left 0
WINDOW 3 31 51 Left 0
SYMATTR InstName C2
SYMATTR Value 4.7µ
SYMBOL res 224 -128 R0
SYMATTR InstName R1
SYMATTR Value 1
SYMBOL cap -48 192 R90
WINDOW 0 0 32 VBottom 0
WINDOW 3 32 32 VTop 0
SYMATTR InstName C3
SYMATTR Value .001µ
SYMBOL res -160 512 R90
WINDOW 0 0 56 VBottom 0
WINDOW 3 32 56 VTop 0
SYMATTR InstName R2
SYMATTR Value 39K
SYMBOL res -336 256 R90
WINDOW 0 0 56 VBottom 0
WINDOW 3 32 56 VTop 0
SYMATTR InstName R3
SYMATTR Value 11K
SYMBOL cap -320 352 R0
SYMATTR InstName C4
SYMATTR Value 1000p
SYMBOL cap -176 352 R0
SYMATTR InstName C5
SYMATTR Value 22p
SYMBOL res -176 320 R90
WINDOW 0 0 56 VBottom 0
WINDOW 3 32 56 VTop 0
SYMATTR InstName R4
SYMATTR Value 20K
SYMBOL res -112 512 M180
WINDOW 0 36 76 Left 0
WINDOW 3 36 40 Left 0
SYMATTR InstName R5
SYMATTR Value 100K
SYMBOL ind 512 160 R270
WINDOW 0 32 56 VTop 0
WINDOW 3 8 60 VBottom 0
SYMATTR InstName L1
SYMATTR Value 0.68µ
SYMATTR SpiceLine Rser=0.005
SYMBOL voltage 688 -128 R0
SYMATTR InstName V1
SYMATTR Value 12
SYMBOL cap 816 192 R0
SYMATTR InstName C6
SYMATTR Value 180µ
SYMATTR SpiceLine Rser=12m
SYMBOL cap 896 192 R0
SYMATTR InstName C7
SYMATTR Value 22µ
SYMATTR SpiceLine Rser=0.003
SYMBOL cap 960 192 R0
SYMATTR InstName C8
SYMATTR Value 22µ
SYMATTR SpiceLine Rser=0.003
SYMBOL res 640 400 R0
SYMATTR InstName R6
SYMATTR Value 14K
SYMBOL res 640 208 R0
SYMATTR InstName R7
SYMATTR Value 30.1K
SYMBOL cap 352 48 M180
WINDOW 0 30 59 Left 0
WINDOW 3 32 12 Left 0
SYMATTR InstName C9
SYMATTR Value .1µ
SYMBOL cap 560 -96 R0
SYMATTR InstName C10
SYMATTR Value 22µ
SYMATTR SpiceLine Rser=0.003
SYMBOL cap 736 192 R0
SYMATTR InstName C11
SYMATTR Value 470p
SYMBOL res 64 -128 R0
SYMATTR InstName R8
SYMATTR Value 715K
SYMBOL current 1056 176 R0
WINDOW 3 39 45 Left 0
WINDOW 123 0 0 Left 0
WINDOW 39 24 89 Left 0
SYMATTR Value 10
SYMATTR SpiceLine load
SYMATTR InstName I1
SYMBOL schottky 368 272 M180
WINDOW 0 37 44 Left 0
WINDOW 3 25 3 Left 0
SYMATTR InstName D1
SYMATTR Value BAT54
SYMATTR Description Diode
SYMATTR Type diode
TEXT 786 464 Left 0 !.tran 2.5m startup
TEXT 248 -184 Center 0 ;LTC1778 - No Rsense, Synchronous Step-Down DC/DC Converter\nInput: 12V   Output: 2.5V @ 10A
TEXT 1056 312 Top 0 ;Active Load
TEXT -304 616 Left 0 ;Note:\n  If the simulation model is not found please update with the "Sync Release" command from the "Tools" menu.\n  It remains the customer's responsibility to verify proper and reliable operation in the actual application.\n  Component substitution and printed circuit board layout may significantly affect circuit performance or reliability\n  Contact your local sales representative for assistance. This circuit is distributed to customers only for use with LTC parts\n  Copyright © 2006 Linear Technology Inc. All rights reserved.
