Version 4
SHEET 1 1272 1268
WIRE -848 192 -1216 192
WIRE -784 192 -848 192
WIRE -304 192 -720 192
WIRE -176 192 -304 192
WIRE 144 192 -176 192
WIRE 464 192 432 192
WIRE 528 192 464 192
WIRE 608 192 528 192
WIRE -1216 208 -1216 192
WIRE 528 208 528 192
WIRE 608 208 608 192
WIRE -640 288 -704 288
WIRE -304 288 -304 192
WIRE -304 288 -384 288
WIRE 144 288 112 288
WIRE -1216 304 -1216 288
WIRE 528 304 528 272
WIRE 608 304 608 288
WIRE -304 352 -304 288
WIRE -640 368 -656 368
WIRE -352 368 -384 368
WIRE -704 384 -704 288
WIRE -704 384 -1216 384
WIRE 288 384 288 352
WIRE -1216 400 -1216 384
WIRE -640 448 -656 448
WIRE -368 448 -384 448
WIRE -176 448 -176 192
WIRE -144 448 -176 448
WIRE 112 448 112 288
WIRE 112 448 80 448
WIRE -848 464 -848 192
WIRE -1216 496 -1216 480
WIRE -144 512 -176 512
WIRE 176 512 80 512
WIRE 464 512 464 192
WIRE 464 512 256 512
WIRE -704 544 -704 384
WIRE -304 544 -304 448
WIRE -304 544 -704 544
WIRE -848 576 -848 544
WIRE -144 576 -848 576
WIRE 320 576 80 576
WIRE 464 576 464 512
WIRE 464 576 400 576
WIRE -848 608 -848 576
WIRE -144 640 -240 640
WIRE 96 640 80 640
WIRE -240 672 -240 640
WIRE -288 688 -576 688
WIRE -848 720 -848 688
WIRE -576 720 -576 688
WIRE -80 720 -80 704
WIRE 0 720 0 704
WIRE -288 736 -304 736
WIRE -240 768 -240 752
WIRE 0 800 0 784
WIRE -576 816 -576 800
FLAG -80 720 0
FLAG 0 800 0
FLAG -1216 496 0
FLAG 288 384 0
FLAG 528 304 0
FLAG 608 304 0
FLAG 608 192 OUT
FLAG -848 720 0
FLAG -240 768 0
FLAG -576 816 0
FLAG -304 736 0
FLAG -1216 304 0
FLAG -656 448 0
FLAG -176 512 0
FLAG -1216 384 IN2
FLAG -1216 192 IN1
FLAG -656 368 0
SYMBOL cap -16 720 R0
SYMATTR InstName C1
SYMATTR Value 33n
SYMBOL voltage -576 704 R0
WINDOW 123 24 138 Left 2
WINDOW 39 24 117 Left 2
SYMATTR Value PULSE(0 2 5 1u 1u 1 3 3)
SYMATTR InstName V1
SYMBOL res 272 496 R90
WINDOW 0 0 56 VBottom 2
WINDOW 3 32 56 VTop 2
SYMATTR InstName R1
SYMATTR Value 10K
SYMBOL res 416 560 R90
WINDOW 0 0 56 VBottom 2
WINDOW 3 32 56 VTop 2
SYMATTR InstName R2
SYMATTR Value 100K
SYMBOL cap 512 208 R0
SYMATTR InstName C2
SYMATTR Value 1µ
SYMBOL res -864 560 M180
WINDOW 0 36 76 Left 2
WINDOW 3 36 40 Left 2
SYMATTR InstName R3
SYMATTR Value 2.21Meg
SYMBOL res -864 704 M180
WINDOW 0 36 76 Left 2
WINDOW 3 36 40 Left 2
SYMATTR InstName R4
SYMATTR Value 200K
SYMBOL sw -240 768 M180
WINDOW 0 19 98 Left 2
WINDOW 3 17 15 Left 2
SYMATTR InstName S1
SYMBOL SpecialFunctions\\LTC2955-1 -32 576 R0
SYMATTR InstName U1
SYMBOL PowerProducts\\LT3009-3.3 288 240 R0
WINDOW 3 -52 47 Left 2
SYMATTR InstName U2
SYMBOL schottky -784 208 R270
WINDOW 0 32 32 VTop 2
WINDOW 3 0 32 VBottom 2
SYMATTR InstName D1
SYMATTR Value 1N5819
SYMATTR Description Diode
SYMATTR Type diode
SYMBOL PowerProducts\\LTC4412 -512 368 R0
SYMATTR InstName U3
SYMBOL voltage -1216 192 R0
WINDOW 123 24 138 Left 2
WINDOW 39 24 117 Left 2
SYMATTR Value PULSE(0 12 2 100m 100m 2)
SYMATTR InstName V2
SYMBOL voltage -1216 384 R0
WINDOW 123 24 138 Left 2
WINDOW 39 24 117 Left 2
SYMATTR Value 3.6
SYMATTR InstName V3
SYMBOL pmos -352 448 M180
WINDOW 0 56 73 Left 2
WINDOW 3 55 31 Left 2
SYMATTR InstName Q1
SYMATTR Value FDC638P
SYMBOL res 592 192 R0
SYMATTR InstName Rload
SYMATTR Value 165
TEXT 152 664 Left 2 !.tran 14 startup
TEXT 152 696 Left 2 !.model SW SW(Ron=100 Roff=1G Vt=0.5 Vh=-.1)
TEXT -328 168 Bottom 2 ;LTC2955 - Pushbutton On/Off Controller with Automatic Turn-On\nLT3009 - 3µA Iq, 20mA Low Dropout Linear Regulators & LTC4412 - Low Loss PowerPath Controller\nPushbutton On/Off Control with Automatic Turn-On When 12V Applied\nInput: 12V (3.6V Battery Backup)     Output: 3.3V @ 20mA
TEXT -920 832 Left 2 ;Note:\n  If the simulation model is not found please update with the "Sync Release" command from the "Tools" menu.\n  It remains the customer's responsibility to verify proper and reliable operation in the actual application.\n  Component substitution and printed circuit board layout may significantly affect circuit performance or reliability.\n  Contact your local sales representative for assistance. This circuit is distributed to customers only for use with LTC parts.\n  Copyright © 2012 Linear Technology Inc. All rights reserved.
