Version 4
SHEET 1 988 1440
WIRE -1328 464 -1904 464
WIRE -1904 480 -1904 464
WIRE -1712 512 -1808 512
WIRE -1664 512 -1712 512
WIRE -1552 512 -1584 512
WIRE -1488 512 -1552 512
WIRE -1328 512 -1328 464
WIRE -1808 528 -1808 512
WIRE -1712 528 -1712 512
WIRE -1552 528 -1552 512
WIRE -1488 560 -1488 512
WIRE -1456 560 -1488 560
WIRE -1904 576 -1904 560
WIRE -1216 576 -1264 576
WIRE -1104 576 -1216 576
WIRE -1456 592 -1488 592
WIRE -1216 592 -1216 576
WIRE -1104 592 -1104 576
WIRE -1808 624 -1808 608
WIRE -1712 640 -1712 608
WIRE -1664 640 -1712 640
WIRE -1552 640 -1552 592
WIRE -1552 640 -1584 640
WIRE -1488 640 -1488 592
WIRE -1488 640 -1552 640
WIRE -1376 656 -1376 640
WIRE -1328 656 -1328 640
WIRE -1328 656 -1376 656
WIRE -1296 656 -1296 640
WIRE -1296 656 -1328 656
WIRE -1296 672 -1296 656
WIRE -1456 704 -1472 704
WIRE -1360 704 -1360 640
WIRE -1360 704 -1376 704
WIRE -1216 704 -1216 656
WIRE -1216 704 -1360 704
WIRE -1104 704 -1104 672
WIRE -1104 704 -1216 704
WIRE -1712 720 -1712 640
WIRE -1712 816 -1712 800
FLAG -1904 576 0
FLAG -1296 672 0
FLAG -1104 576 OUT
FLAG -1712 816 0
FLAG -1808 624 0
FLAG -1808 512 IN
FLAG -1472 704 0
SYMBOL voltage -1904 464 R0
SYMATTR InstName V1
SYMATTR Value 5
SYMBOL LTC2053 -1344 576 R0
SYMATTR InstName U1
SYMBOL cap -1232 592 R0
SYMATTR InstName C1
SYMATTR Value 0.01µ
SYMBOL cap -1568 528 R0
SYMATTR InstName C2
SYMATTR Value 1µ
SYMBOL res -1728 512 R0
SYMATTR InstName R1
SYMATTR Value 4m
SYMBOL res -1680 528 R270
WINDOW 0 32 56 VTop 2
WINDOW 3 0 56 VBottom 2
SYMATTR InstName R2
SYMATTR Value 100
SYMBOL res -1680 656 R270
WINDOW 0 32 56 VTop 2
WINDOW 3 0 56 VBottom 2
SYMATTR InstName R3
SYMATTR Value 100
SYMBOL voltage -1808 512 R0
WINDOW 123 24 138 Left 2
WINDOW 39 24 117 Left 2
SYMATTR InstName V2
SYMATTR Value 1
SYMBOL load2 -1712 720 R0
WINDOW 123 25 126 Left 2
WINDOW 39 25 105 Left 2
SYMATTR InstName I1
SYMATTR Value PULSE(0 10 0 .05 .05 .05 .2 2)
SYMBOL res -1360 688 R90
WINDOW 0 0 56 VBottom 2
WINDOW 3 32 56 VTop 2
SYMATTR InstName R4
SYMATTR Value 400
SYMBOL res -1120 576 R0
SYMATTR InstName Rload
SYMATTR Value 40K
TEXT -1536 448 Bottom 2 ;LTC2053 - Precision, Rail-to-Rail, Zero-Drift, Resistor-Programmable Instrumentation Amplifier\nUnidirectional Current Sense Circuit for 1V Supply Using an Instrument Amplifier\nInput: 0V to 5V     Rsense: 0.004 Ohm Shunt, 0A to 10A     Output: 0V to 4V (Gain of 100)
TEXT -1200 736 Left 2 !.tran .4 startup
TEXT -2056 832 Left 2 ;Note:\n  If the simulation model is not found please update with the "Sync Release" command from the "Tools" menu.\n  It remains the customer's responsibility to verify proper and reliable operation in the actual application.\n  Component substitution and printed circuit board layout may significantly affect circuit performance or reliability.\n  Contact your local sales representative for assistance. This circuit is distributed to customers only for use with LTC parts.\n  Copyright © 2013 Linear Technology Inc. All rights reserved.
