Version 4
SHEET 1 3232 872
WIRE 784 -192 752 -192
WIRE 896 -192 848 -192
WIRE 928 -192 896 -192
WIRE 1024 -192 992 -192
WIRE 752 -96 752 -192
WIRE 752 -96 256 -96
WIRE 784 -96 752 -96
WIRE 896 -96 896 -192
WIRE 896 -96 864 -96
WIRE 928 -96 896 -96
WIRE 1040 -96 1008 -96
WIRE 896 0 896 -96
WIRE 928 0 896 0
WIRE 1040 0 1040 -96
WIRE 1040 0 992 0
WIRE -64 16 -64 0
WIRE 80 16 80 0
WIRE 256 16 256 -96
WIRE 368 16 256 16
WIRE 800 16 800 0
WIRE 416 64 416 48
WIRE 768 64 416 64
WIRE 416 80 416 64
WIRE 1040 96 1040 0
WIRE 1040 96 912 96
WIRE 1056 96 1040 96
WIRE -64 112 -64 96
WIRE 80 112 80 96
WIRE 768 128 752 128
WIRE 416 176 416 160
WIRE 800 192 800 176
WIRE 848 192 848 176
WIRE 144 240 -80 240
WIRE 224 240 144 240
WIRE 256 240 256 16
WIRE 256 240 224 240
WIRE 304 240 256 240
WIRE 416 240 384 240
WIRE 480 240 416 240
WIRE 608 240 544 240
WIRE 640 240 608 240
WIRE 752 240 752 128
WIRE 752 240 720 240
WIRE -80 256 -80 240
WIRE 752 256 752 240
WIRE 144 272 144 240
WIRE 480 336 480 320
WIRE 752 336 752 320
WIRE 416 384 416 240
WIRE 448 384 416 384
WIRE -80 400 -80 336
WIRE 144 400 144 336
WIRE 144 400 -80 400
WIRE -80 416 -80 400
WIRE 608 416 608 240
WIRE 608 416 592 416
WIRE 448 448 416 448
WIRE 480 512 480 496
WIRE 528 512 528 496
FLAG -64 112 0
FLAG -64 0 +V
FLAG 416 -48 +V
FLAG 800 0 +V
FLAG 416 176 -V
FLAG 800 192 -V
FLAG 480 320 +V
FLAG 480 512 -V
FLAG 80 0 -V
FLAG 1056 96 OUT
FLAG 416 448 0
FLAG 752 336 0
FLAG 1024 -192 0
FLAG 80 112 0
FLAG 224 240 IN
FLAG -80 416 -V
SYMBOL njf 368 -48 R0
SYMATTR InstName Q1
SYMATTR Value BF862
SYMBOL voltage -64 0 R0
SYMATTR InstName V1
SYMATTR Value 5
SYMBOL current -80 256 R0
WINDOW 123 24 104 Left 2
WINDOW 39 23 128 Left 2
SYMATTR Value2 1n 1n 1u 2u)
SYMATTR SpiceLine AC 1u
SYMATTR Value PULSE(0 1u 20n
SYMATTR InstName I1
SYMBOL voltage 80 112 M180
WINDOW 0 24 96 Left 2
WINDOW 3 24 16 Left 2
SYMATTR InstName V2
SYMATTR Value 5
SYMBOL res 400 64 R0
SYMATTR InstName R1
SYMATTR Value 1K
SYMBOL cap 128 272 R0
SYMATTR InstName C1
SYMATTR Value 3p
SYMBOL res 1024 -112 R90
WINDOW 0 0 56 VBottom 2
WINDOW 3 32 56 VTop 2
SYMATTR InstName R2
SYMATTR Value 499K
SYMBOL cap 992 -16 R90
WINDOW 0 0 32 VBottom 2
WINDOW 3 32 32 VTop 2
SYMATTR InstName C2
SYMATTR Value 1p
SYMBOL cap 544 224 R90
WINDOW 0 0 32 VBottom 2
WINDOW 3 32 32 VTop 2
SYMATTR InstName C3
SYMATTR Value .1µ
SYMBOL res 880 -112 R90
WINDOW 0 0 56 VBottom 2
WINDOW 3 32 56 VTop 2
SYMATTR InstName R3
SYMATTR Value 499K
SYMBOL cap 848 -208 R90
WINDOW 0 0 32 VBottom 2
WINDOW 3 32 32 VTop 2
SYMATTR InstName C4
SYMATTR Value .3p
SYMBOL Opamps\\LT6200 800 96 R0
SYMATTR InstName U1
SYMBOL Opamps\\LTC2050 480 416 R0
SYMATTR InstName U2
SYMBOL res 288 256 R270
WINDOW 0 32 56 VTop 2
WINDOW 3 0 56 VBottom 2
SYMATTR InstName R4
SYMATTR Value 10Meg
SYMBOL res 736 224 R90
WINDOW 0 0 56 VBottom 2
WINDOW 3 32 56 VTop 2
SYMATTR InstName R5
SYMATTR Value 10K
SYMBOL cap 928 -176 R270
WINDOW 0 32 32 VTop 2
WINDOW 3 0 32 VBottom 2
SYMATTR InstName C5
SYMATTR Value .8p
SYMBOL cap 736 320 M180
WINDOW 0 24 56 Left 2
WINDOW 3 24 8 Left 2
SYMATTR InstName C6
SYMATTR Value 1µ
TEXT 688 424 Left 2 !.tran 3u\n;.ac oct 100 1 10Meg\n;.noise V(out) I1 oct 100 100 10Meg
TEXT -184 576 Left 2 !.model BF862 NJF(Beta=0.0299 Rd=0.1 Rs=0.1 Lambda=10m Vto=-.766 Is=33.57f Cgd=2p M=.3622 Fc=.5 Cgs=8p)
TEXT 456 -256 Bottom 2 ;LT6200 - 165MHz, Rail-to-Rail Input and Output, 0.95nV/vHz Low Noise, Op Amp Family\nLTC2050 - Zero-Drift Operational Amplifiers\nLow Noise, Low Power Photodiode Transimpedance Amplifier with DC Precision
TEXT -184 616 Left 2 ;Note:\n  If the simulation model is not found please update with the "Sync Release" command from the "Tools" menu.\n  It remains the customer's responsibility to verify proper and reliable operation in the actual application.\n  Component substitution and printed circuit board layout may significantly affect circuit performance or reliability\n  Contact your local sales representative for assistance. This circuit is distributed to customers only for use with LTC parts\n  Copyright © 2017 Linear Technology Inc. All rights reserved.
TEXT 32 232 Bottom 2 ;Photodiode
TEXT 712 -192 Right 2 ;Parasitic Capacitance
RECTANGLE Normal 192 464 -144 192 2
CIRCLE Normal 1060 -138 724 -250 2
