Version 4
SHEET 1 1368 1972
WIRE -1248 1216 -1248 1152
WIRE -1248 1344 -1248 1296
WIRE -1136 1152 -1248 1152
WIRE -1136 1216 -1136 1152
WIRE -1136 1344 -1136 1280
WIRE -1056 960 -1056 768
WIRE -1056 1056 -1056 1040
WIRE -1056 1152 -1136 1152
WIRE -1056 1152 -1056 1056
WIRE -1056 1216 -1056 1152
WIRE -1056 1344 -1056 1280
WIRE -1040 352 -1040 320
WIRE -1040 464 -1040 432
WIRE -1024 1152 -1056 1152
WIRE -1008 768 -1056 768
WIRE -928 320 -1040 320
WIRE -928 368 -928 320
WIRE -928 464 -928 432
WIRE -896 960 -1056 960
WIRE -896 1056 -1056 1056
WIRE -896 1152 -944 1152
WIRE -896 1200 -896 1152
WIRE -896 1344 -896 1280
WIRE -848 768 -928 768
WIRE -848 800 -848 768
WIRE -848 896 -848 864
WIRE -832 320 -928 320
WIRE -832 352 -832 320
WIRE -832 464 -832 416
WIRE -800 1280 -800 1248
WIRE -800 1376 -800 1360
WIRE -736 1248 -800 1248
WIRE -720 320 -832 320
WIRE -720 496 -720 320
WIRE -720 672 -720 592
WIRE -720 768 -848 768
WIRE -720 768 -720 672
WIRE -720 784 -720 768
WIRE -720 896 -848 896
WIRE -720 896 -720 880
WIRE -720 912 -720 896
WIRE -640 320 -720 320
WIRE -640 416 -640 400
WIRE -640 672 -720 672
WIRE -640 1248 -672 1248
WIRE -640 1280 -640 1248
WIRE -640 1376 -640 1344
WIRE -576 960 -816 960
WIRE -576 976 -576 960
WIRE -576 1056 -816 1056
WIRE -576 1056 -576 1040
WIRE -544 1344 -560 1344
WIRE -496 480 -496 448
WIRE -496 672 -576 672
WIRE -496 672 -496 544
WIRE -464 576 -672 576
WIRE -464 672 -496 672
WIRE -464 768 -720 768
WIRE -464 864 -672 864
WIRE -464 960 -576 960
WIRE -464 1056 -576 1056
WIRE -464 1152 -896 1152
WIRE -464 1248 -640 1248
WIRE -464 1344 -480 1344
WIRE -464 1440 -496 1440
WIRE -464 1552 -480 1552
WIRE -384 416 -640 416
WIRE -384 496 -384 416
WIRE -384 1648 -384 1632
WIRE -240 448 -496 448
WIRE -240 496 -240 448
WIRE -240 1648 -240 1632
WIRE -96 1648 -96 1632
WIRE 0 1440 -16 1440
WIRE 16 1344 -16 1344
WIRE 16 1552 -16 1552
WIRE 32 448 -240 448
WIRE 32 480 32 448
WIRE 32 672 -16 672
WIRE 32 672 32 544
WIRE 96 672 32 672
WIRE 96 960 -16 960
WIRE 96 976 96 960
WIRE 96 1056 -16 1056
WIRE 96 1056 96 1040
WIRE 96 1344 80 1344
WIRE 112 448 32 448
WIRE 112 528 112 512
WIRE 160 1248 -16 1248
WIRE 160 1280 160 1248
WIRE 160 1376 160 1344
WIRE 192 576 -16 576
WIRE 192 864 -16 864
WIRE 208 1248 160 1248
WIRE 240 320 -640 320
WIRE 240 496 240 320
WIRE 240 672 160 672
WIRE 240 672 240 592
WIRE 240 768 -16 768
WIRE 240 768 240 672
WIRE 240 784 240 768
WIRE 240 896 240 880
WIRE 240 912 240 896
WIRE 256 960 96 960
WIRE 256 1056 96 1056
WIRE 288 1248 272 1248
WIRE 288 1280 288 1248
WIRE 288 1376 288 1360
WIRE 352 1152 -16 1152
WIRE 352 1168 352 1152
WIRE 352 1264 352 1248
WIRE 384 768 240 768
WIRE 384 800 384 768
WIRE 384 896 240 896
WIRE 384 896 384 864
WIRE 432 1152 352 1152
WIRE 448 768 384 768
WIRE 560 768 528 768
WIRE 560 960 336 960
WIRE 560 960 560 768
WIRE 560 1056 336 1056
WIRE 560 1056 560 1040
WIRE 560 1152 512 1152
WIRE 560 1152 560 1056
WIRE 560 1200 560 1152
WIRE 560 1312 560 1264
WIRE 640 1152 560 1152
WIRE 640 1200 640 1152
WIRE 640 1312 640 1264
WIRE 752 1152 640 1152
WIRE 752 1200 752 1152
WIRE 752 1312 752 1280
FLAG -384 1648 0
FLAG -96 1648 0
FLAG 240 912 0
FLAG 96 1344 0
FLAG 288 1376 0
FLAG 352 1264 0
FLAG 752 1312 0
FLAG -1040 464 0
FLAG 160 1376 0
FLAG 752 1152 OUT2
FLAG -720 912 0
FLAG -560 1344 0
FLAG -800 1376 0
FLAG -1056 1344 0
FLAG -896 1344 0
FLAG -1248 1344 0
FLAG -640 1376 0
FLAG -1248 1152 OUT1
FLAG -496 1440 0
FLAG -832 464 0
FLAG 560 1312 0
FLAG 640 1312 0
FLAG -1136 1344 0
FLAG -928 464 0
FLAG -640 480 0
FLAG 112 528 0
FLAG 16 1552 0
FLAG -1040 320 IN
SYMBOL VOLTAGE -1040 336 R0
WINDOW 123 0 0 Left 0
WINDOW 39 0 0 Left 0
SYMATTR InstName V1
SYMATTR Value 16
SYMBOL NMOS 192 496 R0
WINDOW 3 60 57 Left 0
SYMATTR Value HAT2168H
SYMATTR InstName Q1
SYMBOL nmos 192 784 R0
WINDOW 0 63 23 Left 0
WINDOW 3 57 56 Left 0
SYMATTR InstName Q2
SYMATTR Value HAT2167H
SYMBOL cap 96 656 M90
WINDOW 0 0 32 VBottom 0
WINDOW 3 32 32 VTop 0
SYMATTR InstName C1
SYMATTR Value .1µ
SYMBOL ind -912 784 M270
WINDOW 0 32 56 VTop 0
WINDOW 3 5 56 VBottom 0
SYMATTR InstName L1
SYMATTR Value 10µ
SYMATTR SpiceLine Ipk=4.5 Rser=0.028 Rpar=0 Cpar=0 mfg="Sumida" pn="CDRH124-100MC"
SYMBOL res 544 944 R0
SYMATTR InstName R1
SYMATTR Value 0.02
SYMBOL cap 16 1360 R270
WINDOW 0 32 32 VTop 0
WINDOW 3 0 32 VBottom 0
SYMATTR InstName C2
SYMATTR Value .0001µ
SYMBOL cap 208 1264 R270
WINDOW 0 32 32 VTop 0
WINDOW 3 0 32 VBottom 0
SYMATTR InstName C3
SYMATTR Value 3300p
SYMBOL res 272 1264 R0
SYMATTR InstName R2
SYMATTR Value 15K
SYMBOL cap 80 976 R0
SYMATTR InstName C4
SYMATTR Value 1000p
SYMBOL res 336 1152 R0
SYMATTR InstName R3
SYMATTR Value 20K
SYMBOL cap 144 1280 R0
SYMATTR InstName C5
SYMATTR Value 100p
SYMBOL res 528 1136 R90
WINDOW 0 0 56 VBottom 0
WINDOW 3 32 56 VTop 0
SYMATTR InstName R4
SYMATTR Value 280K
SYMBOL cap 544 1200 R0
SYMATTR SpiceLine Rser=4m
SYMATTR InstName C6
SYMATTR Value 4.7µ
SYMBOL schottky 16 480 R0
WINDOW 3 24 78 Left 0
SYMATTR Value CMDSH2-3
SYMATTR InstName D1
SYMBOL NMOS -672 496 M0
WINDOW 0 -34 32 Left 0
WINDOW 3 40 104 Right 0
SYMATTR InstName Q3
SYMATTR Value HAT2168H
SYMBOL nmos -672 784 M0
WINDOW 0 -8 19 Right 0
WINDOW 3 -6 56 Right 0
SYMATTR InstName Q4
SYMATTR Value HAT2167H
SYMBOL cap -576 656 R90
WINDOW 0 0 32 VBottom 0
WINDOW 3 32 32 VTop 0
SYMATTR InstName C7
SYMATTR Value .1µ
SYMBOL ind 432 784 R270
WINDOW 0 32 56 VTop 0
WINDOW 3 5 56 VBottom 0
SYMATTR InstName L2
SYMATTR Value 12µ
SYMATTR SpiceLine Ipk=4 Rser=0.038 Rpar=0 Cpar=0 mfg="Sumida" pn="CDRH124-120MC"
SYMBOL res -1072 944 R0
SYMATTR InstName R5
SYMATTR Value 0.02
SYMBOL cap -480 1360 M270
WINDOW 0 32 32 VTop 0
WINDOW 3 0 32 VBottom 0
SYMATTR InstName C8
SYMATTR Value .0001µ
SYMBOL cap -736 1232 M90
WINDOW 0 0 32 VBottom 0
WINDOW 3 32 32 VTop 0
SYMATTR InstName C9
SYMATTR Value 1000p
SYMBOL res -816 1264 R0
SYMATTR InstName R6
SYMATTR Value 30K
SYMBOL cap -592 976 R0
SYMATTR InstName C10
SYMATTR Value 1000p
SYMBOL res -912 1184 R0
SYMATTR InstName R7
SYMATTR Value 20K
SYMBOL cap -656 1280 R0
SYMATTR InstName C11
SYMATTR Value 100p
SYMBOL res -1040 1136 M90
WINDOW 0 0 56 VBottom 0
WINDOW 3 32 56 VTop 0
SYMATTR InstName R8
SYMATTR Value 105K
SYMBOL cap -1040 1216 M0
WINDOW 40 24 128 Left 0
WINDOW 0 -54 9 Left 0
WINDOW 3 -43 55 Left 0
SYMATTR InstName C12
SYMATTR Value 4.7µ
SYMATTR SpiceLine Rser=4m
SYMBOL schottky -480 480 M0
SYMATTR InstName D2
SYMATTR Value CMDSH2-3
SYMBOL res -656 304 R0
WINDOW 0 41 49 Left 0
WINDOW 3 41 83 Left 0
SYMATTR InstName R9
SYMATTR Value 10
SYMBOL res 352 944 R90
WINDOW 0 0 56 VBottom 0
WINDOW 3 32 56 VTop 0
SYMATTR InstName R10
SYMATTR Value 10
SYMBOL res 352 1040 R90
WINDOW 0 0 56 VBottom 0
WINDOW 3 32 56 VTop 0
SYMATTR InstName R11
SYMATTR Value 10
SYMBOL res -800 944 R90
WINDOW 0 0 56 VBottom 0
WINDOW 3 32 56 VTop 0
SYMATTR InstName R12
SYMATTR Value 10
SYMBOL res -800 1040 R90
WINDOW 0 0 56 VBottom 0
WINDOW 3 32 56 VTop 0
SYMATTR InstName R13
SYMATTR Value 10
SYMBOL cap -848 352 R0
WINDOW 39 24 92 Left 0
SYMATTR SpiceLine x2
SYMATTR InstName C13
SYMATTR Value 0.1µ
SYMBOL PowerProducts\\LTC3727-1 -240 960 R0
SYMATTR InstName U1
SYMBOL polcap -944 368 R0
SYMATTR InstName C15
SYMATTR Value 22µ
SYMATTR SpiceLine Rser=0.03
SYMBOL cap -656 416 R0
WINDOW 0 43 26 Left 0
WINDOW 3 39 55 Left 0
SYMATTR InstName C16
SYMATTR Value 0.1µ
SYMBOL polcap 96 448 R0
SYMATTR InstName C17
SYMATTR Value 4.7µ
SYMATTR SpiceLine Rser=0.03
SYMBOL schottky -864 864 M180
WINDOW 0 24 72 Left 0
WINDOW 3 24 0 Left 0
SYMATTR InstName D3
SYMATTR Value MBRS130L
SYMBOL schottky 368 864 M180
WINDOW 0 24 72 Left 0
WINDOW 3 24 0 Left 0
SYMATTR InstName D4
SYMATTR Value MBRS130L
SYMBOL polcap -1152 1216 R0
SYMATTR InstName C18
SYMATTR Value 150µ
SYMATTR SpiceLine Rser=0.03
SYMBOL polcap 624 1200 R0
SYMATTR InstName C19
SYMATTR Value 68µ
SYMATTR SpiceLine Rser=0.025
SYMBOL res 736 1184 R0
SYMATTR InstName R14
SYMATTR Value 5
SYMBOL res -1264 1200 R0
SYMATTR InstName R15
SYMATTR Value 1.25
TEXT 174 1448 Left 0 !.tran 1m startup
TEXT -1056 704 Left 0 ;CDRH124-100MC
TEXT 392 704 Left 0 ;CDRH124-120MC
TEXT -240 296 Bottom 0 ;LTC3727-1 -High Efficiency, 2-Phase Synchronous Step-Down Switching Regulators\nInput: 12.5-25V   Outputs: 5V@4A and 12V@3A, Component value selected similar to DC457B
TEXT -824 1656 Left 0 ;Notes:\n  Run/SS1 and Run/SS2 caps are reduced significantly to reduce simulation time.\n \n  If the simulation model is not found please update with the "Sync Release" command from the "Tools" menu.\n  It remains the customer's responsibility to verify proper and reliable operation in the actual application.\n  Component substitution and printed circuit board layout may significantly affect circuit performance or reliability\n  Contact your local sales representative for assistance. This circuit is distributed to customers only for use with LTC parts\n  Copyright © 2006 Linear Technology Inc. All rights reserved.
