Version 4
SHEET 1 2440 1304
WIRE -656 -336 -768 -336
WIRE -576 -336 -656 -336
WIRE 144 -336 -576 -336
WIRE 1056 -336 144 -336
WIRE -768 -320 -768 -336
WIRE -656 -320 -656 -336
WIRE 240 -320 -208 -320
WIRE 688 -320 240 -320
WIRE 784 -320 688 -320
WIRE 48 -288 -160 -288
WIRE 784 -288 784 -320
WIRE -160 -272 -160 -288
WIRE 48 -272 48 -288
WIRE 144 -272 144 -336
WIRE 240 -272 240 -320
WIRE 336 -272 336 -288
WIRE 432 -272 432 -288
WIRE -768 -224 -768 -240
WIRE -656 -224 -656 -256
WIRE -48 -208 -64 -208
WIRE 544 -208 528 -208
WIRE -160 -176 -160 -192
WIRE 784 -176 784 -208
WIRE -208 -112 -208 -320
WIRE -144 -112 -208 -112
WIRE -48 -112 -64 -112
WIRE 560 -112 528 -112
WIRE 688 -112 688 -320
WIRE 688 -112 640 -112
WIRE -480 -96 -752 -96
WIRE -368 -96 -416 -96
WIRE -304 -96 -368 -96
WIRE -208 -96 -208 -112
WIRE -208 -96 -240 -96
WIRE 688 -96 688 -112
WIRE 720 -96 688 -96
WIRE 848 -96 784 -96
WIRE 896 -96 848 -96
WIRE 1232 -96 960 -96
WIRE -576 -64 -576 -336
WIRE 1056 -64 1056 -336
WIRE -368 -48 -368 -96
WIRE 848 -48 848 -96
WIRE -48 -16 -144 -16
WIRE 592 -16 528 -16
WIRE -144 0 -144 -16
WIRE 592 0 592 -16
WIRE -496 16 -528 16
WIRE -208 16 -208 -96
WIRE -208 16 -240 16
WIRE 688 16 688 -96
WIRE 720 16 688 16
WIRE 1008 16 976 16
WIRE -1120 96 -1248 96
WIRE -1024 96 -1120 96
WIRE -944 96 -1024 96
WIRE -896 96 -944 96
WIRE -864 96 -896 96
WIRE -752 96 -752 -96
WIRE -752 96 -784 96
WIRE -576 96 -576 32
WIRE -576 96 -752 96
WIRE -496 96 -576 96
WIRE -208 96 -208 16
WIRE -208 96 -240 96
WIRE -144 96 -144 80
WIRE 592 96 592 80
WIRE 688 96 688 16
WIRE 720 96 688 96
WIRE 1056 96 1056 32
WIRE 1056 96 976 96
WIRE 1232 96 1232 -96
WIRE 1232 96 1056 96
WIRE 1264 96 1232 96
WIRE 1376 96 1344 96
WIRE 1408 96 1376 96
WIRE 1440 96 1408 96
WIRE 1552 96 1440 96
WIRE 1680 96 1552 96
WIRE -1024 112 -1024 96
WIRE 1440 112 1440 96
WIRE 1552 112 1552 96
WIRE 1680 112 1680 96
WIRE -1248 128 -1248 96
WIRE -1120 128 -1120 96
WIRE -496 176 -528 176
WIRE -48 176 -240 176
WIRE 720 176 528 176
WIRE 1008 176 976 176
WIRE -1024 224 -1024 176
WIRE -976 224 -1024 224
WIRE -576 224 -576 192
WIRE 1056 224 1056 192
WIRE 1440 224 1440 176
WIRE 1552 224 1552 176
WIRE 1680 224 1680 192
WIRE -1248 240 -1248 208
WIRE -1120 240 -1120 192
WIRE -1024 240 -1024 224
WIRE -368 256 -368 240
WIRE 848 256 848 240
WIRE -752 272 -752 96
WIRE -688 272 -752 272
WIRE -208 272 -608 272
WIRE -48 272 -208 272
WIRE 608 272 528 272
WIRE 1088 272 608 272
WIRE 1232 272 1232 96
WIRE 1232 272 1168 272
WIRE -208 288 -208 272
WIRE 608 288 608 272
WIRE -896 368 -896 96
WIRE -208 368 -208 352
WIRE -208 368 -896 368
WIRE -48 368 -208 368
WIRE 608 368 608 352
WIRE 608 368 528 368
WIRE 1376 368 1376 96
WIRE 1376 368 608 368
WIRE -512 464 -592 464
WIRE -336 464 -432 464
WIRE -288 464 -336 464
WIRE -112 464 -288 464
WIRE -48 464 -112 464
WIRE 560 464 528 464
WIRE 736 464 560 464
WIRE 832 464 736 464
WIRE 912 464 832 464
WIRE 1056 464 992 464
WIRE 1408 464 1408 96
WIRE 1408 464 1056 464
WIRE -288 480 -288 464
WIRE -112 480 -112 464
WIRE 560 480 560 464
WIRE -592 544 -592 464
WIRE -560 544 -592 544
WIRE -448 544 -496 544
WIRE -336 544 -336 464
WIRE -336 544 -368 544
WIRE 832 544 832 464
WIRE 864 544 832 544
WIRE 976 544 944 544
WIRE 1056 544 1056 464
WIRE 1056 544 1040 544
WIRE -336 560 -336 544
WIRE -208 560 -288 560
WIRE -112 560 -112 544
WIRE -112 560 -144 560
WIRE -48 560 -112 560
WIRE 560 560 560 544
WIRE 560 560 528 560
WIRE 640 560 560 560
WIRE 736 560 736 544
WIRE 736 560 704 560
WIRE 832 576 832 544
WIRE -336 656 -336 640
WIRE -128 656 -144 656
WIRE -48 656 -64 656
WIRE 560 656 528 656
WIRE 640 656 624 656
WIRE 832 672 832 656
WIRE 64 832 64 816
WIRE -976 864 -976 224
WIRE 176 864 176 816
WIRE 176 864 -976 864
WIRE -944 880 -944 96
WIRE 304 880 304 816
WIRE 304 880 -944 880
WIRE -592 896 -592 544
WIRE 416 896 416 816
WIRE 416 896 -592 896
FLAG 64 832 0
FLAG -768 -224 0
FLAG 784 -176 0
FLAG 336 -288 0
FLAG 432 -288 0
FLAG -160 -176 0
FLAG 848 256 0
FLAG 1056 224 0
FLAG -368 256 0
FLAG -576 224 0
FLAG -768 -336 IN
FLAG 640 656 0
FLAG -1120 240 0
FLAG 1552 224 0
FLAG -144 656 0
FLAG -336 656 0
FLAG 832 672 0
FLAG -144 96 0
FLAG 592 96 0
FLAG -656 -224 0
FLAG -1248 240 0
FLAG -1024 240 0
FLAG 1440 224 0
FLAG 1680 224 0
FLAG -1248 96 OUT1
FLAG 1680 96 OUT2
SYMBOL PowerProducts\\LTC3860 240 272 R0
SYMATTR InstName U1
SYMBOL voltage -768 -336 R0
SYMATTR InstName V1
SYMATTR Value 12
SYMBOL voltage 784 -304 R0
SYMATTR InstName V2
SYMATTR Value 5
SYMBOL res -176 -288 R0
SYMATTR InstName R1
SYMATTR Value 40.2K
SYMBOL res -160 -96 R270
WINDOW 0 32 56 VTop 0
WINDOW 3 0 56 VBottom 0
SYMATTR InstName R2
SYMATTR Value 100K
SYMBOL PowerProducts\\LTC4449 848 96 R0
SYMATTR InstName U2
SYMBOL nmos 1008 -64 R0
WINDOW 3 57 67 Left 0
WINDOW 40 56 102 Left 0
SYMATTR Value RJK0305DPB
SYMATTR SpiceLine2 m=2
SYMATTR InstName Q1
SYMBOL nmos 1008 96 R0
WINDOW 40 56 100 Left 0
SYMATTR SpiceLine2 m=2
SYMATTR InstName Q2
SYMATTR Value RJK0301DPB
SYMBOL ind 1248 112 R270
WINDOW 0 32 56 VTop 0
WINDOW 3 5 56 VBottom 0
SYMATTR InstName L2
SYMATTR Value .47µ
SYMATTR SpiceLine Rser=.74m Rpar=5K
SYMBOL res 1184 256 R90
WINDOW 0 0 56 VBottom 0
WINDOW 3 32 56 VTop 0
SYMATTR InstName R3
SYMATTR Value 2.87K
SYMBOL cap 592 288 R0
SYMATTR InstName C2
SYMATTR Value .22µ
SYMBOL PowerProducts\\LTC4449 -368 96 M0
SYMATTR InstName U3
SYMBOL nmos -528 -64 M0
WINDOW 3 60 59 Left 0
WINDOW 40 61 93 Left 0
SYMATTR Value RJK0305DPB
SYMATTR SpiceLine2 m=2
SYMATTR InstName Q3
SYMBOL nmos -528 96 M0
WINDOW 40 56 100 Left 0
SYMATTR SpiceLine2 m=2
SYMATTR InstName Q4
SYMATTR Value RJK0301DPB
SYMBOL ind -768 112 M270
WINDOW 0 32 56 VTop 0
WINDOW 3 5 56 VBottom 0
SYMATTR InstName L1
SYMATTR Value .47µ
SYMATTR SpiceLine Rser=.74m Rpar=5K
SYMBOL res -704 256 M90
WINDOW 0 0 56 VBottom 0
WINDOW 3 32 56 VTop 0
SYMATTR InstName R4
SYMATTR Value 2.87K
SYMBOL cap -224 288 R0
SYMATTR InstName C3
SYMATTR Value .22µ
SYMBOL schottky -240 -112 R90
WINDOW 0 0 32 VBottom 0
WINDOW 3 32 32 VTop 0
SYMATTR InstName D1
SYMATTR Value CMDSH2-3
SYMATTR Description Diode
SYMATTR Type diode
SYMBOL cap -416 -112 R90
WINDOW 0 0 32 VBottom 0
WINDOW 3 32 32 VTop 0
SYMATTR InstName C7
SYMATTR Value .22µ
SYMBOL schottky 720 -112 M90
WINDOW 0 0 32 VBottom 0
WINDOW 3 32 32 VTop 0
SYMATTR InstName D2
SYMATTR Value CMDSH2-3
SYMATTR Description Diode
SYMATTR Type diode
SYMBOL cap 896 -112 M90
WINDOW 0 0 32 VBottom 0
WINDOW 3 32 32 VTop 0
SYMATTR InstName C8
SYMATTR Value .22µ
SYMBOL cap 560 672 R270
WINDOW 0 32 32 VTop 0
WINDOW 3 0 32 VBottom 0
SYMATTR InstName C9
SYMATTR Value 1n
SYMBOL cap -1040 112 R0
WINDOW 40 24 92 Left 0
SYMATTR SpiceLine2 m=2
SYMATTR InstName Cout2
SYMATTR Value 100µ
SYMATTR SpiceLine Rser=2m
SYMBOL polcap -1136 128 R0
WINDOW 40 24 85 Left 0
SYMATTR SpiceLine2 m=3
SYMATTR InstName Cout1
SYMATTR Value 330µ
SYMATTR SpiceLine Rser=9m
SYMBOL cap 1424 112 R0
WINDOW 40 24 92 Left 0
SYMATTR SpiceLine2 m=2
SYMATTR InstName Cout3
SYMATTR Value 100µ
SYMATTR SpiceLine Rser=2m
SYMBOL polcap 1536 112 R0
WINDOW 40 24 85 Left 0
SYMATTR SpiceLine2 m=3
SYMATTR InstName Cout4
SYMATTR Value 330µ
SYMATTR SpiceLine Rser=9m
SYMBOL cap -64 672 M270
WINDOW 0 32 32 VTop 0
WINDOW 3 0 32 VBottom 0
SYMATTR InstName C1
SYMATTR Value 1n
SYMBOL res -416 448 R90
WINDOW 0 0 56 VBottom 0
WINDOW 3 32 56 VTop 0
SYMATTR InstName R6
SYMATTR Value 20K
SYMBOL cap -496 528 R90
WINDOW 0 0 32 VBottom 0
WINDOW 3 32 32 VTop 0
SYMATTR InstName C4
SYMATTR Value 2.2n
SYMBOL res -352 528 R90
WINDOW 0 0 56 VBottom 0
WINDOW 3 32 56 VTop 0
SYMATTR InstName R7
SYMATTR Value 499
SYMBOL res -352 544 R0
SYMATTR InstName R8
SYMATTR Value 20K
SYMBOL cap -128 480 R0
SYMATTR InstName C5
SYMATTR Value 100p
SYMBOL res -304 464 R0
SYMATTR InstName R9
SYMATTR Value 6.34K
SYMBOL cap -144 544 R90
WINDOW 0 0 32 VBottom 0
WINDOW 3 32 32 VTop 0
SYMATTR InstName C6
SYMATTR Value 680p
SYMBOL res 1008 448 R90
WINDOW 0 0 56 VBottom 0
WINDOW 3 32 56 VTop 0
SYMATTR InstName R10
SYMATTR Value 20K
SYMBOL cap 1040 528 R90
WINDOW 0 0 32 VBottom 0
WINDOW 3 32 32 VTop 0
SYMATTR InstName C10
SYMATTR Value 2.2n
SYMBOL res 960 528 R90
WINDOW 0 0 56 VBottom 0
WINDOW 3 32 56 VTop 0
SYMATTR InstName R11
SYMATTR Value 499
SYMBOL res 816 560 R0
SYMATTR InstName R12
SYMATTR Value 10K
SYMBOL cap 544 480 R0
SYMATTR InstName C11
SYMATTR Value 100p
SYMBOL res 720 448 R0
SYMATTR InstName R13
SYMATTR Value 6.34K
SYMBOL cap 704 544 R90
WINDOW 0 0 32 VBottom 0
WINDOW 3 32 32 VTop 0
SYMATTR InstName C12
SYMATTR Value 680p
SYMBOL res -1264 112 R0
SYMATTR InstName Rload1
SYMATTR Value 48m
SYMBOL res 1664 96 R0
SYMATTR InstName Rload2
SYMATTR Value 72m
SYMBOL res -160 -16 R0
SYMATTR InstName R5
SYMATTR Value 59.0K
SYMBOL res 576 -16 R0
SYMATTR InstName R14
SYMATTR Value 59.0K
SYMBOL res 656 -128 R90
WINDOW 0 0 56 VBottom 0
WINDOW 3 32 56 VTop 0
SYMATTR InstName R15
SYMATTR Value 100K
SYMBOL cap -672 -320 R0
WINDOW 40 29 73 Left 0
WINDOW 3 42 34 Left 0
SYMATTR SpiceLine2 m=4
SYMATTR Value 22µ
SYMATTR InstName C13
SYMATTR SpiceLine Rser=4m
TEXT 1072 816 Left 0 !.tran 1m startup
TEXT -224 920 Left 0 ;Note:\n  If the simulation model is not found please update with the "Sync Release" command from the "Tools" menu.\n  It remains the customer's responsibility to verify proper and reliable operation in the actual application.\n  Component substitution and printed circuit board layout may significantly affect circuit performance or reliability.\n  Contact your local sales representative for assistance. This circuit is distributed to customers only for use with LTC parts.\n  Copyright © 2011 Linear Technology Inc. All rights reserved.
TEXT 256 -352 Bottom 0 ;LTC3860 - Dual, Multiphase Step-Down Voltage Mode DC/DC Controller with Current Sharing\nInput: 4V-14V     Outputs: 1.2V @ 25A and 1.8V @ 25A, Fsw = 500kHz
TEXT -1304 280 Left 0 ;1.2V @ 25A
TEXT 1632 288 Left 0 ;1.8V @ 25A
