Version 4
SHEET 1 1544 680
WIRE -32 32 -80 32
WIRE 96 32 48 32
WIRE 96 96 96 32
WIRE -160 160 -272 160
WIRE -80 160 -80 32
WIRE -80 160 -160 160
WIRE -48 160 -80 160
WIRE 288 160 240 160
WIRE 400 160 288 160
WIRE 480 160 400 160
WIRE 576 160 480 160
WIRE 288 176 288 160
WIRE 480 176 480 160
WIRE 576 176 576 160
WIRE -272 192 -272 160
WIRE -160 192 -160 160
WIRE 400 192 400 160
WIRE 480 272 480 240
WIRE 576 272 576 256
WIRE -80 288 -80 160
WIRE -48 288 -80 288
WIRE 288 288 288 256
WIRE 288 288 240 288
WIRE 400 288 400 256
WIRE 400 288 288 288
WIRE -272 304 -272 272
WIRE -160 304 -160 256
WIRE 288 304 288 288
WIRE 96 368 96 352
WIRE 288 400 288 384
FLAG -160 304 0
FLAG 480 272 0
FLAG 288 400 0
FLAG 96 368 0
FLAG 576 160 OUT
FLAG -272 304 0
FLAG 576 272 0
FLAG -272 160 IN
SYMBOL res 272 160 R0
SYMATTR InstName R1
SYMATTR Value 887K
SYMBOL res 272 288 R0
SYMATTR InstName R2
SYMATTR Value 499K
SYMBOL cap -176 192 R0
SYMATTR InstName C1
SYMATTR Value 1µ
SYMBOL cap 464 176 R0
SYMATTR InstName C2
SYMATTR Value 4.7µ
SYMBOL ind -48 48 R270
WINDOW 0 32 56 VTop 0
WINDOW 3 5 56 VBottom 0
SYMATTR InstName L1
SYMATTR Value 4.7µ
SYMATTR SpiceLine Ipk=0.9 Rser=0.085 Rpar=5904 Cpar=1.235p mfg="Wurth Elektronik" pn="744031004 WE-TPC S"
SYMBOL cap 384 192 R0
SYMATTR InstName C3
SYMATTR Value 33p
SYMBOL voltage -272 176 R0
WINDOW 123 0 0 Left 0
WINDOW 39 24 132 Left 0
SYMATTR InstName V1
SYMATTR Value 2
SYMBOL res 560 160 R0
SYMATTR InstName R3
SYMATTR Value 33
SYMBOL PowerProducts\\LTC3526 96 224 R0
SYMATTR InstName U1
TEXT 456 376 Left 0 !.tran 500u startup
TEXT 216 -32 Bottom 0 ;LTC3526-2 500mA 1MHz Synchronous Boost Converter\nInput: 1V to 5V    Output: 3.3V @ 100mA
TEXT -440 424 Left 0 ;Note:\n  If the simulation model is not found please update with the "Sync Release" command from the "Tools" menu.\n  It remains the customer's responsibility to verify proper and reliable operation in the actual application.\n  Component substitution and printed circuit board layout may significantly affect circuit performance or reliability.\n  Contact your local sales representative for assistance. This circuit is distributed to customers only for use with LTC parts.\n  Copyright © 2006 Linear Technology Inc. All rights reserved.
