Version 4
SHEET 1 1440 928
WIRE 640 -160 224 -160
WIRE -224 -144 -336 -144
WIRE -144 -144 -224 -144
WIRE -64 -144 -144 -144
WIRE 448 -144 -64 -144
WIRE -336 -128 -336 -144
WIRE -224 -128 -224 -144
WIRE -144 -128 -144 -144
WIRE 768 -128 16 -128
WIRE 224 -112 224 -160
WIRE 640 -80 640 -160
WIRE -64 -48 -64 -144
WIRE 16 -48 16 -128
WIRE 32 -48 16 -48
WIRE 448 -48 448 -144
WIRE 448 -48 416 -48
WIRE -336 -32 -336 -48
WIRE -224 -32 -224 -64
WIRE -144 -32 -144 -64
WIRE -64 48 -64 32
WIRE 32 48 -64 48
WIRE 448 48 416 48
WIRE 512 48 448 48
WIRE 720 48 592 48
WIRE 768 48 768 -128
WIRE 768 48 720 48
WIRE 864 48 768 48
WIRE 960 48 864 48
WIRE 1072 48 960 48
WIRE 448 64 448 48
WIRE 768 64 768 48
WIRE 864 64 864 48
WIRE 960 64 960 48
WIRE 1072 64 1072 48
WIRE -48 144 -64 144
WIRE 32 144 16 144
WIRE 448 144 448 128
WIRE 448 144 416 144
WIRE 448 160 448 144
WIRE 768 160 768 128
WIRE 864 160 864 128
WIRE 960 160 960 128
WIRE 1072 160 1072 144
WIRE 720 224 720 48
WIRE -160 240 -176 240
WIRE -64 240 -80 240
WIRE 32 240 -64 240
WIRE 448 240 448 224
WIRE 448 240 416 240
WIRE 640 240 640 0
WIRE 640 240 448 240
WIRE -64 256 -64 240
WIRE -160 336 -176 336
WIRE -64 336 -96 336
WIRE 32 336 -64 336
WIRE 720 336 720 304
WIRE 720 336 416 336
WIRE 720 352 720 336
WIRE 480 432 416 432
WIRE 528 432 480 432
WIRE 640 432 608 432
WIRE 480 448 480 432
WIRE 640 448 640 432
WIRE 720 448 720 432
WIRE 144 512 144 496
WIRE 304 512 304 496
WIRE 480 528 480 512
WIRE 640 528 640 512
WIRE -64 544 -64 336
WIRE 448 544 448 240
WIRE 448 544 -64 544
FLAG -64 144 0
FLAG 304 512 0
FLAG 144 512 0
FLAG -336 -144 IN
FLAG 720 448 0
FLAG 768 160 0
FLAG 1072 160 0
FLAG 1072 48 OUT
FLAG -176 336 0
FLAG -336 -32 0
FLAG -176 240 0
FLAG 864 160 0
FLAG -144 -32 0
FLAG 480 528 0
FLAG 640 528 0
FLAG -224 -32 0
FLAG 960 160 0
SYMBOL cap 16 128 R90
WINDOW 0 0 32 VBottom 2
WINDOW 3 32 32 VTop 2
SYMATTR InstName C1
SYMATTR Value .001µ
SYMBOL cap 464 448 R0
WINDOW 3 23 54 Left 2
WINDOW 39 24 85 Left 2
SYMATTR Value 100p
SYMATTR InstName C2
SYMBOL voltage -336 -144 R0
WINDOW 3 25 99 Left 2
SYMATTR Value 12
SYMATTR InstName V1
SYMBOL ind 496 64 R270
WINDOW 0 32 56 VTop 2
WINDOW 3 5 56 VBottom 2
SYMATTR InstName L1
SYMATTR Value 1µ
SYMBOL cap 432 64 R0
WINDOW 3 25 52 Left 2
SYMATTR Value .22µ
SYMATTR InstName C3
SYMBOL schottky 432 224 M180
WINDOW 0 39 47 Left 2
WINDOW 3 24 8 Left 2
SYMATTR InstName D1
SYMATTR Value CMDSH2-3
SYMATTR Description Diode
SYMATTR Type diode
SYMBOL res 704 336 R0
SYMATTR InstName R1
SYMATTR Value 49.9K
SYMBOL res 704 208 R0
SYMATTR InstName R2
SYMATTR Value 100K
SYMBOL cap 752 64 R0
SYMATTR InstName C4
SYMATTR Value 100µ
SYMATTR SpiceLine Rser=5m
SYMBOL res 1056 48 R0
SYMATTR InstName Rload
SYMATTR Value .18
SYMBOL res -80 -64 R0
SYMATTR InstName R3
SYMATTR Value 255K
SYMBOL cap -96 320 R90
WINDOW 0 0 32 VBottom 2
WINDOW 3 32 32 VTop 2
SYMATTR InstName C5
SYMATTR Value 4.7µ
SYMBOL res -80 352 M180
WINDOW 0 36 76 Left 2
WINDOW 3 36 40 Left 2
SYMATTR InstName R4
SYMATTR Value 35.7K
SYMBOL res -64 224 R90
WINDOW 0 0 56 VBottom 2
WINDOW 3 32 56 VTop 2
SYMATTR InstName R5
SYMATTR Value 10K
SYMBOL cap 624 448 R0
WINDOW 3 23 52 Left 2
SYMATTR Value 1000p
SYMATTR InstName C6
SYMBOL res 512 448 R270
WINDOW 0 32 56 VTop 2
WINDOW 3 0 56 VBottom 2
SYMATTR InstName R6
SYMATTR Value 4.99K
SYMBOL cap 848 64 R0
SYMATTR InstName C7
SYMATTR Value 100µ
SYMBOL cap -160 -128 R0
SYMATTR InstName C8
SYMATTR Value 10µ
SYMBOL res 624 16 M180
WINDOW 0 36 76 Left 2
WINDOW 3 36 40 Left 2
SYMATTR InstName R7
SYMATTR Value 100K
SYMBOL cap -240 -128 R0
SYMATTR InstName C9
SYMATTR Value 10µ
SYMBOL cap 944 64 R0
SYMATTR InstName C10
SYMATTR Value 100µ
SYMBOL PowerProducts\\LTC3611 224 192 R0
SYMATTR InstName U1
TEXT 856 496 Left 2 !.tran 3m startup
TEXT 200 -176 Bottom 2 ;LTC3611 - 10A, 32V Monolithic Synchronous Step-Down DC/DC Converter\nHigh Input Voltage & High Current Density Buck Converter\nInput: 9V to 32V              Output: 1.8V @ 10A
TEXT -312 552 Left 2 ;Note:\n  A smaller value SS capacitor (C1) is used to reduce simulation time. Typical value should be 0.1µF.\n  If the simulation model is not found please update with the "Sync Release" command from the "Tools" menu.\n  It remains the customer's responsibility to verify proper and reliable operation in the actual application.\n  Component substitution and printed circuit board layout may significantly affect circuit performance or reliability\n  Contact your local sales representative for assistance. This circuit is distributed to customers only for use with LTC parts\n  Copyright © 2013 Linear Technology Inc. All rights reserved.
