Version 4
SHEET 1 1188 928
WIRE -80 -48 -208 -48
WIRE 128 -48 -80 -48
WIRE 384 -48 128 -48
WIRE -208 -32 -208 -48
WIRE -80 -32 -80 -48
WIRE 128 -32 128 -48
WIRE 128 48 128 32
WIRE -208 64 -208 48
WIRE -80 64 -80 32
WIRE 0 96 -16 96
WIRE 288 96 256 96
WIRE 384 96 384 -48
WIRE 384 96 288 96
WIRE 288 112 288 96
WIRE 384 112 384 96
WIRE -176 208 -192 208
WIRE -96 208 -112 208
WIRE 0 208 -16 208
WIRE 288 208 288 176
WIRE 288 208 256 208
WIRE 384 208 384 192
WIRE 384 208 288 208
WIRE 384 304 384 208
WIRE -80 320 -112 320
WIRE 0 320 -16 320
WIRE 336 320 256 320
WIRE 384 416 384 400
WIRE 432 416 384 416
WIRE 560 416 512 416
WIRE 656 416 560 416
WIRE 768 416 656 416
WIRE 896 416 768 416
WIRE -96 432 -112 432
WIRE 0 432 -16 432
WIRE 288 432 256 432
WIRE 560 432 560 416
WIRE 768 432 768 416
WIRE 896 432 896 416
WIRE 384 448 384 416
WIRE 656 464 656 416
WIRE 128 496 128 480
WIRE 560 512 560 496
WIRE 768 528 768 496
WIRE 896 528 896 512
WIRE 384 544 384 512
WIRE 192 608 176 608
WIRE 288 608 288 432
WIRE 288 608 272 608
WIRE 560 608 560 592
WIRE 560 608 288 608
WIRE 656 608 656 544
WIRE 656 608 560 608
FLAG -192 208 0
FLAG -112 432 0
FLAG -112 320 0
FLAG 128 496 0
FLAG -208 64 0
FLAG 384 544 0
FLAG 768 528 0
FLAG 896 528 0
FLAG 176 608 0
FLAG -16 96 0
FLAG 896 416 OUT
FLAG -208 -48 IN
FLAG -80 64 0
SYMBOL PowerProducts\\LTC3824 128 272 R0
SYMATTR InstName U1
SYMBOL pmos 336 400 M180
WINDOW 0 57 68 Left 0
WINDOW 3 57 35 Left 0
SYMATTR InstName Q1
SYMATTR Value IRF7343P
SYMBOL res 368 96 R0
SYMATTR InstName R1
SYMATTR Value .025
SYMBOL cap 112 -32 R0
SYMATTR InstName C1
SYMATTR Value .1µ
SYMBOL res 0 416 R90
WINDOW 0 0 56 VBottom 0
WINDOW 3 32 56 VTop 0
SYMATTR InstName R2
SYMATTR Value 392K
SYMBOL res 0 192 R90
WINDOW 0 0 56 VBottom 0
WINDOW 3 32 56 VTop 0
SYMATTR InstName R3
SYMATTR Value 15K
SYMBOL cap -112 192 R90
WINDOW 0 0 32 VBottom 0
WINDOW 3 32 32 VTop 0
SYMATTR InstName C2
SYMATTR Value 1000p
SYMBOL cap -16 304 R90
WINDOW 0 0 32 VBottom 0
WINDOW 3 32 32 VTop 0
SYMATTR InstName C3
SYMATTR Value .01µ
SYMBOL voltage -208 -48 R0
WINDOW 40 24 146 Left 0
WINDOW 123 24 167 Left 0
WINDOW 39 24 125 Left 0
SYMATTR InstName V1
SYMATTR Value 55
SYMBOL schottky 368 512 M180
WINDOW 0 24 72 Left 0
WINDOW 3 24 0 Left 0
SYMATTR InstName D1
SYMATTR Value 1N5819
SYMATTR Description Diode
SYMATTR Type diode
SYMBOL ind 416 432 R270
WINDOW 0 32 56 VTop 0
WINDOW 3 5 56 VBottom 0
SYMATTR InstName L1
SYMATTR Value 22µ
SYMBOL cap 752 432 R0
WINDOW 0 28 8 Left 0
WINDOW 3 29 52 Left 0
WINDOW 39 27 78 Left 0
SYMATTR InstName C4
SYMATTR Value 270µ
SYMBOL res 288 592 R90
WINDOW 0 0 56 VBottom 0
WINDOW 3 32 56 VTop 0
SYMATTR InstName R4
SYMATTR Value 80.6K
SYMBOL res 640 448 R0
SYMATTR InstName R5
SYMATTR Value 255K
SYMBOL res 544 496 R0
SYMATTR InstName R6
SYMATTR Value 51
SYMBOL cap 544 432 R0
SYMATTR InstName C5
SYMATTR Value 100p
SYMBOL cap 272 112 R0
SYMATTR InstName C6
SYMATTR Value 100p
SYMBOL cap -96 -32 R0
SYMATTR InstName C7
SYMATTR Value 33µ
SYMBOL res 880 416 R0
SYMATTR InstName Rload
SYMATTR Value 1.65
TEXT 736 616 Left 0 !.tran 2m startup
TEXT -320 608 Left 0 ;Notes:\n \n  C3 should be 0.1µF, not 0.01µF.  It is reduced in value here to speed up the time to simulate a soft start cycle.\n \n  If the simulation model is not found please update with the "Sync Release" command from the "Tools" menu.\n  It remains the customer's responsibility to verify proper and reliable operation in the actual application.\n  Component substitution and printed circuit board layout may significantly affect circuit performance or reliability.\n  Contact your local sales representative for assistance. This circuit is distributed to customers only for use with LTC parts.\n  Copyright © 2011 Linear Technology Inc. All rights reserved.
TEXT 336 -64 Bottom 0 ;LTC3824 - High Voltage Step-Down Controller With 40µA Quiescent Current\nInput: 4.5V-55V      Output: 3.3V @ 2A     fsw = 200kHz
