Version 4
SHEET 1 5868 2084
WIRE 1504 1296 1376 1296
WIRE 1600 1296 1504 1296
WIRE 1776 1296 1600 1296
WIRE 1376 1312 1376 1296
WIRE 1504 1312 1504 1296
WIRE 1776 1312 1776 1296
WIRE 1600 1376 1600 1296
WIRE 1632 1376 1600 1376
WIRE 1936 1376 1920 1376
WIRE 2048 1376 2016 1376
WIRE 2160 1376 2048 1376
WIRE 2256 1376 2160 1376
WIRE 2384 1376 2256 1376
WIRE 2256 1392 2256 1376
WIRE 2384 1392 2384 1376
WIRE 1376 1408 1376 1392
WIRE 1504 1408 1504 1376
WIRE 2048 1408 2048 1376
WIRE 2160 1424 2160 1376
WIRE 2256 1488 2256 1456
WIRE 2384 1488 2384 1472
WIRE 1632 1536 1600 1536
WIRE 2048 1536 2048 1488
WIRE 2048 1536 1920 1536
WIRE 2160 1536 2160 1488
WIRE 2160 1536 2048 1536
WIRE 1600 1552 1600 1536
WIRE 2048 1552 2048 1536
WIRE 1776 1616 1776 1600
WIRE 2048 1648 2048 1632
FLAG 1776 1616 0
FLAG 1376 1408 0
FLAG 1600 1552 0
FLAG 2384 1488 0
FLAG 2048 1648 0
FLAG 2256 1488 0
FLAG 2384 1376 OUT
FLAG 1504 1408 0
FLAG 1376 1296 IN
SYMBOL ind 1920 1392 R270
WINDOW 0 32 56 VTop 0
WINDOW 3 5 56 VBottom 0
SYMATTR InstName L1
SYMATTR Value 2.2µ
SYMATTR SpiceLine Ipk=2.3 Rser=0.06 Rpar=55000 Cpar=1.8p mfg="Coilcraft" pn="DO1608P-222"
SYMBOL RES 2032 1392 R0
SYMATTR InstName R2
SYMATTR Value 150K
SYMBOL VOLTAGE 1376 1296 R0
WINDOW 123 0 0 Left 0
WINDOW 39 24 132 Left 0
SYMATTR InstName V1
SYMATTR Value 3.3
SYMBOL res 2032 1536 R0
WINDOW 3 35 73 Left 0
SYMATTR Value 75K
SYMATTR InstName R1
SYMBOL cap 2144 1424 R0
SYMATTR InstName C2
SYMATTR Value 22p
SYMBOL cap 1488 1312 R0
SYMATTR SpiceLine V=6.3 Irms=0 Rser=0.0008 MTBF=0 Lser=0 mfg="TDK" pn="C3225X5R0J226M" type="X5R" ppPkg=1
SYMATTR SpiceLine2 x1
SYMATTR InstName C3
SYMATTR Value 10µ
SYMBOL cap 2240 1392 R0
SYMATTR SpiceLine V=6.3 Irms=0 Rser=0.0008 MTBF=0 Lser=0 mfg="TDK" pn="C3225X5R0J226M" type="X5R" ppPkg=1
SYMATTR SpiceLine2 x1
SYMATTR InstName C4
SYMATTR Value 10µ
SYMBOL res 2368 1376 R0
SYMATTR InstName Rload
SYMATTR Value 3.6
SYMBOL PowerProducts\\LTC3542 1776 1456 R0
SYMATTR InstName U1
TEXT 2216 1592 Left 0 !.tran 2m startup
TEXT 1864 1256 Bottom 0 ;LTC3542 - 500mA, 2.25MHz Synchronous Step-Down Regulator\nInput: 3.3V     Output: 1.8V @ 0.5A
TEXT 1288 1672 Left 0 ;Note:\n  If the simulation model is not found please update with the "Sync Release" command from the "Tools" menu.\n  It remains the customer's responsibility to verify proper and reliable operation in the actual application.\n  Component substitution and printed circuit board layout may significantly affect circuit performance or reliability\n  Contact your local sales representative for assistance. This circuit is distributed to customers only for use with LTC parts\n  Copyright © 2008 Linear Technology Inc. All rights reserved.
