Version 4
SHEET 1 2584 1464
WIRE 560 16 336 16
WIRE 784 16 560 16
WIRE 1104 16 784 16
WIRE 1216 16 1104 16
WIRE 1280 16 1216 16
WIRE 1408 16 1280 16
WIRE 336 32 336 16
WIRE 560 32 560 16
WIRE 784 32 784 16
WIRE 1280 32 1280 16
WIRE 1408 32 1408 16
WIRE 1104 48 1104 16
WIRE 336 128 336 112
WIRE 432 128 336 128
WIRE 784 128 784 112
WIRE 1056 128 784 128
WIRE 1280 128 1280 96
WIRE 1408 128 1408 112
WIRE 336 144 336 128
WIRE 560 160 560 112
WIRE 592 160 560 160
WIRE 672 160 656 160
WIRE 432 208 432 128
WIRE 672 208 432 208
WIRE 560 224 560 160
WIRE 672 224 672 208
WIRE 784 224 784 128
WIRE 336 240 336 224
WIRE 448 288 336 288
WIRE 944 288 896 288
WIRE 992 288 944 288
WIRE 1104 288 1104 144
WIRE 1104 288 1056 288
WIRE 1216 304 1216 16
WIRE 448 384 432 384
WIRE 1168 384 896 384
WIRE 944 400 944 288
WIRE 336 480 336 288
WIRE 448 480 336 480
WIRE 944 480 944 464
WIRE 944 480 896 480
WIRE 1216 480 1216 400
WIRE 1216 480 944 480
WIRE 1408 480 1216 480
WIRE 1456 480 1408 480
WIRE 1584 480 1536 480
WIRE 1632 480 1584 480
WIRE 1728 480 1632 480
WIRE 1824 480 1728 480
WIRE 1632 496 1632 480
WIRE 1728 496 1728 480
WIRE 1824 496 1824 480
WIRE 1408 544 1408 480
WIRE 336 576 336 480
WIRE 336 576 208 576
WIRE 448 576 336 576
WIRE 944 576 896 576
WIRE 1104 576 1104 288
WIRE 1104 576 944 576
WIRE 1104 592 1104 576
WIRE 1632 592 1632 560
WIRE 1728 592 1728 560
WIRE 1824 592 1824 576
WIRE 336 672 336 576
WIRE 448 672 336 672
WIRE 944 672 944 576
WIRE 944 672 896 672
WIRE 1104 672 1104 656
WIRE 368 768 352 768
WIRE 448 768 432 768
WIRE 912 768 896 768
WIRE 272 864 256 864
WIRE 352 864 336 864
WIRE 448 864 432 864
WIRE 1104 864 896 864
WIRE 1216 880 1216 480
WIRE 1584 896 1584 480
WIRE 368 960 256 960
WIRE 448 960 368 960
WIRE 1168 960 896 960
WIRE 256 976 256 960
WIRE 368 976 368 960
WIRE 1104 1008 1104 864
WIRE 1216 1008 1216 976
WIRE 1216 1008 1104 1008
WIRE 1408 1008 1408 608
WIRE 1408 1008 1216 1008
WIRE 1584 1008 1584 976
WIRE 1584 1008 1504 1008
WIRE 1216 1024 1216 1008
WIRE 1584 1024 1584 1008
WIRE 368 1056 368 1040
WIRE 448 1056 368 1056
WIRE 1104 1056 896 1056
WIRE 256 1072 256 1056
WIRE 1104 1120 1104 1056
WIRE 1216 1120 1216 1104
WIRE 1216 1120 1104 1120
WIRE 1584 1120 1584 1104
WIRE 560 1136 560 1120
WIRE 784 1136 784 1120
WIRE 1216 1136 1216 1120
WIRE 256 1168 256 1136
WIRE 368 1168 368 1056
WIRE 368 1168 256 1168
WIRE 1504 1168 1504 1008
WIRE 1504 1168 368 1168
WIRE 208 1200 208 576
WIRE 944 1200 944 672
WIRE 944 1200 208 1200
FLAG 1104 672 0
FLAG 784 1136 0
FLAG 560 1136 0
FLAG 1584 1120 0
FLAG 1632 592 0
FLAG 1824 592 0
FLAG 352 768 0
FLAG 1408 128 0
FLAG 1824 480 OUT
FLAG 1408 16 IN
FLAG 256 864 0
FLAG 1280 128 0
FLAG 1728 592 0
FLAG 672 160 0
FLAG 336 240 0
FLAG 912 768 0
FLAG 1216 1136 0
SYMBOL res 544 16 R0
SYMATTR InstName R1
SYMATTR Value 2.7Meg
SYMBOL nmos 1056 48 R0
SYMATTR InstName Q1
SYMATTR Value BSH114
SYMBOL res 768 16 R0
SYMATTR InstName R2
SYMATTR Value 287K
SYMBOL diode 1056 272 R90
WINDOW 0 0 32 VBottom 2
WINDOW 3 32 32 VTop 2
SYMATTR InstName D1
SYMATTR Value MMSD4148
SYMBOL cap 928 400 R0
SYMATTR InstName C1
SYMATTR Value .1µ
SYMBOL nmos 1168 304 R0
SYMATTR InstName Q2
SYMATTR Value BSC060N10NS3
SYMBOL nmos 1168 880 R0
SYMATTR InstName Q3
SYMATTR Value BSC060N10NS3
SYMBOL cap 1088 592 R0
WINDOW 3 36 33 Left 2
WINDOW 123 23 54 Left 2
SYMATTR Value 1µ
SYMATTR Value2 x2
SYMATTR InstName C2
SYMBOL ind 1440 496 R270
WINDOW 0 32 56 VTop 2
WINDOW 3 5 56 VBottom 2
SYMATTR InstName L1
SYMATTR Value 33µ
SYMATTR SpiceLine Ipk=16.7 Rser=0.0187 Rpar=3108.6 Cpar=0 mfg="Coilcraft" pn="XAL1510-333"
SYMBOL schottky 1392 608 M180
WINDOW 0 24 64 Left 2
WINDOW 3 24 0 Left 2
SYMATTR InstName D2
SYMATTR Value MBRS1100
SYMATTR Description Diode
SYMATTR Type diode
SYMBOL res 1568 880 R0
SYMATTR InstName R3
SYMATTR Value 68.1K
SYMBOL res 1568 1008 R0
SYMATTR InstName R4
SYMATTR Value 976
SYMBOL cap 1616 496 R0
SYMATTR SpiceLine Rser=0.004
SYMATTR Value 4.7µ
SYMATTR InstName C3
SYMBOL cap 352 976 R0
WINDOW 39 24 92 Left 2
WINDOW 40 23 114 Left 2
SYMATTR InstName C4
SYMATTR Value 10p
SYMBOL cap 432 752 R90
WINDOW 0 0 32 VBottom 2
WINDOW 3 32 32 VTop 2
SYMATTR InstName C5
SYMATTR Value 1000p
SYMBOL cap 336 848 R90
WINDOW 0 0 32 VBottom 2
WINDOW 3 32 32 VTop 2
WINDOW 39 58 32 VTop 2
SYMATTR InstName C6
SYMATTR Value .01µ
SYMBOL LTC3810 672 672 R0
SYMATTR InstName U1
SYMBOL res 240 960 R0
SYMATTR InstName R6
SYMATTR Value 46.4K
SYMBOL cap 240 1072 R0
SYMATTR InstName C7
SYMATTR Value 1200p
SYMBOL res 448 848 R90
WINDOW 0 0 56 VBottom 2
WINDOW 3 32 56 VTop 2
SYMATTR InstName R7
SYMATTR Value 10K
SYMBOL voltage 1408 16 R0
WINDOW 123 24 124 Left 2
WINDOW 39 24 152 Left 2
SYMATTR Value2 +1u 75 +.2m 75 +1u 60
SYMATTR SpiceLine +.1m 60 +.4m 40)
SYMATTR InstName V1
SYMATTR Value PWL(0 0 +20u 60 +.8m 60
SYMBOL res 1808 480 R0
SYMATTR InstName Rload
SYMATTR Value 11.4
SYMBOL polcap 1264 32 R0
WINDOW 3 36 32 Left 2
WINDOW 123 24 57 Left 2
SYMATTR Value 33µ
SYMATTR Value2 x2
SYMATTR InstName C8
SYMATTR Description Capacitor
SYMATTR Type cap
SYMATTR SpiceLine Rser=0.46
SYMBOL polcap 1712 496 R0
SYMATTR InstName C9
SYMATTR Value 33µ
SYMATTR Description Capacitor
SYMATTR Type cap
SYMATTR SpiceLine Rser=0.35
SYMBOL cap 592 176 R270
WINDOW 0 32 32 VTop 2
WINDOW 3 0 32 VBottom 2
SYMATTR InstName C10
SYMATTR Value 100p
SYMBOL res 320 16 R0
SYMATTR InstName R5
SYMATTR Value 464K
SYMBOL res 320 128 R0
SYMATTR InstName R8
SYMATTR Value 13.3K
SYMBOL res 1200 1008 R0
SYMATTR InstName R10
SYMATTR Value 30m
TEXT 1664 1176 Left 2 !.tran 2m
TEXT 224 1224 Left 2 ;Note:\n  If the simulation model is not found please update with the "Sync Release" command from the "Tools" menu.\n  It remains the customer's responsibility to verify proper and reliable operation in the actual application.\n  Component substitution and printed circuit board layout may significantly affect circuit performance or reliability.\n  Contact your local sales representative for assistance. This circuit is distributed to customers only for use with LTC parts.\n  Copyright © 2015 Linear Technology Inc. All rights reserved.
TEXT 880 0 Bottom 2 ;LTC3810 - 100V Current Mode Synchronous Switching Regulator Controller\nHigh Efficiency Switching Surge Stopper\nInput: 36V to 75V     Output: 57V @ 5A
