Version 4
SHEET 1 1200 764
WIRE 48 -80 -208 -80
WIRE 144 -80 48 -80
WIRE 272 -80 144 -80
WIRE 368 -80 272 -80
WIRE -208 -64 -208 -80
WIRE 144 -64 144 -80
WIRE 272 -64 272 -80
WIRE 48 0 48 -80
WIRE 64 0 48 0
WIRE 368 0 368 -80
WIRE 368 0 352 0
WIRE -208 32 -208 16
WIRE -176 96 -304 96
WIRE -96 96 -176 96
WIRE -64 96 -96 96
WIRE 64 96 16 96
WIRE 400 96 352 96
WIRE 528 96 480 96
WIRE 624 96 528 96
WIRE 736 96 624 96
WIRE 816 96 736 96
WIRE -304 112 -304 96
WIRE -176 112 -176 96
WIRE 528 112 528 96
WIRE 624 112 624 96
WIRE 736 112 736 96
WIRE 816 112 816 96
WIRE -96 192 -96 96
WIRE 64 192 -96 192
WIRE 528 192 528 176
WIRE 528 192 352 192
WIRE 624 192 528 192
WIRE -304 208 -304 192
WIRE -176 208 -176 176
WIRE 624 208 624 192
WIRE 736 208 736 176
WIRE 816 208 816 192
WIRE 48 288 48 0
WIRE 64 288 48 288
WIRE 368 288 368 0
WIRE 368 288 352 288
WIRE 624 304 624 288
WIRE -192 384 -336 384
WIRE -96 384 -192 384
WIRE -48 384 -96 384
WIRE 64 384 32 384
WIRE 384 384 352 384
WIRE 496 384 464 384
WIRE 608 384 496 384
WIRE 688 384 608 384
WIRE -336 400 -336 384
WIRE -192 400 -192 384
WIRE -96 400 -96 384
WIRE 496 400 496 384
WIRE 608 400 608 384
WIRE 688 400 688 384
WIRE 64 480 -96 480
WIRE 496 480 352 480
WIRE -336 496 -336 480
WIRE -192 496 -192 464
WIRE -96 496 -96 480
WIRE 496 496 496 480
WIRE 608 496 608 464
WIRE 688 496 688 480
WIRE 144 560 144 544
WIRE 272 560 272 544
WIRE -96 592 -96 576
WIRE 496 592 496 576
FLAG -208 32 0
FLAG 736 208 0
FLAG 816 208 0
FLAG 624 304 0
FLAG 608 496 0
FLAG 688 496 0
FLAG 496 592 0
FLAG -176 208 0
FLAG -304 208 0
FLAG -192 496 0
FLAG -336 496 0
FLAG -96 592 0
FLAG 272 560 0
FLAG 144 560 0
FLAG -208 -80 IN
FLAG -304 96 OUT3
FLAG -336 384 OUT4
FLAG 816 96 OUT1
FLAG 688 384 OUT2
SYMBOL voltage -208 -80 R0
WINDOW 123 0 0 Left 0
WINDOW 39 0 0 Left 0
SYMATTR InstName V1
SYMATTR Value 5V
SYMBOL ind 384 112 R270
WINDOW 0 32 56 VTop 0
WINDOW 3 5 56 VBottom 0
SYMATTR InstName L1
SYMATTR Value 10µ
SYMBOL cap 720 112 R0
SYMATTR InstName C1
SYMATTR Value 10µ
SYMBOL res 608 96 R0
SYMATTR InstName R1
SYMATTR Value 59K
SYMBOL res 608 192 R0
SYMATTR InstName R2
SYMATTR Value 118K
SYMBOL ind 368 400 R270
WINDOW 0 32 56 VTop 0
WINDOW 3 5 56 VBottom 0
SYMATTR InstName L2
SYMATTR Value 3.3µ
SYMBOL cap 592 400 R0
SYMATTR InstName C2
SYMATTR Value 10µ
SYMBOL res 480 384 R0
SYMATTR InstName R3
SYMATTR Value 133K
SYMBOL res 480 480 R0
SYMATTR InstName R4
SYMATTR Value 107K
SYMBOL ind 32 112 M270
WINDOW 0 32 56 VTop 0
WINDOW 3 5 56 VBottom 0
SYMATTR InstName L3
SYMATTR Value 3.3µ
SYMBOL cap -192 112 R0
SYMATTR InstName C3
SYMATTR Value 10µ
SYMBOL ind 48 400 M270
WINDOW 0 32 56 VTop 0
WINDOW 3 5 56 VBottom 0
SYMATTR InstName L4
SYMATTR Value 4.7µ
SYMBOL cap -208 400 R0
SYMATTR InstName C4
SYMATTR Value 10µ
SYMBOL res -112 384 R0
SYMATTR InstName R5
SYMATTR Value 93.1K
SYMBOL res -112 480 R0
SYMATTR InstName R6
SYMATTR Value 107K
SYMBOL PowerProducts\\LTC3544 208 240 R0
SYMATTR InstName U1
SYMBOL cap 512 112 R0
SYMATTR Value 20p
SYMATTR InstName C5
SYMBOL res 800 96 R0
SYMATTR InstName Rload1
SYMATTR Value 12
SYMBOL res 672 384 R0
SYMATTR InstName Rload2
SYMATTR Value 6
SYMBOL res -320 96 R0
SYMATTR InstName Rload3
SYMATTR Value 4
SYMBOL res -352 384 R0
SYMATTR InstName Rload4
SYMATTR Value 7.5
TEXT 680 576 Left 0 !.tran 1m startup
TEXT 192 -112 Bottom 0 ;LTC3544 - Quad Synchronous Step-Down Regulator: 2.25MHz, 300mA, 200mA, 200mA, 100mA\nInput:  5V   Outputs:  1.2V@100mA, 1.8V@300mA, 0.8V@200mA, and 1.5V@200mA
TEXT -360 608 Left 0 ;Note:\n  If the simulation model is not found please update with the "Sync Release" command from the "Tools" menu.\n  It remains the customer's responsibility to verify proper and reliable operation in the actual application.\n  Component substitution and printed circuit board layout may significantly affect circuit performance or reliability\n  Contact your local sales representative for assistance. This circuit is distributed to customers only for use with LTC parts\n  Copyright © 2008 Linear Technology Inc. All rights reserved.
