Version 4
SHEET 1 1136 680
WIRE -608 -208 -720 -208
WIRE -480 -208 -544 -208
WIRE -368 -208 -480 -208
WIRE -208 -208 -368 -208
WIRE -64 -208 -208 -208
WIRE 96 -208 -64 -208
WIRE 128 -208 96 -208
WIRE 656 -208 416 -208
WIRE -720 -192 -720 -208
WIRE -208 -192 -208 -208
WIRE -64 -192 -64 -208
WIRE 656 -192 656 -208
WIRE -368 -128 -368 -208
WIRE 96 -112 96 -208
WIRE 128 -112 96 -112
WIRE 448 -112 416 -112
WIRE 576 -112 528 -112
WIRE 656 -112 656 -128
WIRE 656 -112 576 -112
WIRE -720 -96 -720 -128
WIRE -208 -96 -208 -128
WIRE -64 -96 -64 -128
WIRE 656 -96 656 -112
WIRE -368 -16 -368 -48
WIRE -272 -16 -368 -16
WIRE -192 -16 -272 -16
WIRE -32 -16 -128 -16
WIRE 96 -16 96 -112
WIRE 128 -16 96 -16
WIRE 448 -16 416 -16
WIRE 576 -16 576 -112
WIRE 576 -16 528 -16
WIRE 656 -16 656 -32
WIRE -368 16 -368 -16
WIRE -272 80 -272 -16
WIRE -192 80 -272 80
WIRE -32 80 -32 -16
WIRE -32 80 -112 80
WIRE 128 80 96 80
WIRE 576 80 576 -16
WIRE 576 80 416 80
WIRE -368 112 -368 96
WIRE 128 176 112 176
WIRE 432 176 416 176
WIRE -480 192 -480 -208
WIRE -176 192 -176 176
WIRE -272 240 -272 80
WIRE -208 240 -272 240
WIRE -32 272 -32 80
WIRE -32 272 -64 272
WIRE 16 272 -32 272
WIRE 128 272 96 272
WIRE 432 272 416 272
WIRE -480 304 -480 272
WIRE -272 304 -480 304
WIRE -208 304 -272 304
WIRE -480 336 -480 304
WIRE -272 336 -272 304
WIRE 272 352 272 336
WIRE -176 368 -176 352
WIRE -480 432 -480 400
WIRE -272 432 -272 400
FLAG 272 352 0
FLAG 112 176 0
FLAG 432 272 0
FLAG 656 -16 0
FLAG 656 -208 OUT
FLAG -64 -96 0
FLAG -176 368 0
FLAG -368 112 0
FLAG -208 -96 0
FLAG -480 432 0
FLAG -272 432 0
FLAG -176 176 IN
FLAG -480 -208 IN
FLAG -720 -96 0
SYMBOL LTC3625 272 32 R0
SYMATTR InstName U1
SYMBOL res 112 256 R90
WINDOW 0 0 56 VBottom 2
WINDOW 3 32 56 VTop 2
SYMATTR InstName R1
SYMATTR Value 143K
SYMBOL cap 640 -192 R0
SYMATTR InstName C1
SYMATTR Value 50m
SYMATTR SpiceLine Rser=8m
SYMBOL cap 640 -96 R0
SYMATTR InstName C2
SYMATTR Value 50m
SYMATTR SpiceLine Rser=8m
SYMBOL ind 432 -96 R270
WINDOW 0 32 56 VTop 2
WINDOW 3 5 56 VBottom 2
SYMATTR InstName L1
SYMATTR Value 3.3µ
SYMATTR SpiceLine Rser=5m
SYMBOL ind 432 0 R270
WINDOW 0 32 56 VTop 2
WINDOW 3 5 56 VBottom 2
SYMATTR InstName L2
SYMATTR Value 3.3µ
SYMATTR SpiceLine Rser=5m
SYMBOL cap -80 -192 R0
SYMATTR InstName C3
SYMATTR Value 10µ
SYMBOL LT1784 -176 272 R0
SYMATTR InstName U2
SYMBOL res -96 64 R90
WINDOW 0 0 56 VBottom 2
WINDOW 3 32 56 VTop 2
SYMATTR InstName R2
SYMATTR Value 174K
SYMBOL res -384 0 R0
SYMATTR InstName R3
SYMATTR Value 10K
SYMBOL res -384 -144 R0
SYMATTR InstName R4
SYMATTR Value 26.7K
SYMBOL cap -128 -32 R90
WINDOW 0 0 32 VBottom 2
WINDOW 3 32 32 VTop 2
SYMATTR InstName C4
SYMATTR Value 100p
SYMBOL res -496 176 R0
SYMATTR InstName R5
SYMATTR Value 10K
SYMBOL cap -288 336 R0
SYMATTR InstName C5
SYMATTR Value 10n
SYMBOL cap -224 -192 R0
SYMATTR InstName C6
SYMATTR Value 390µ
SYMATTR SpiceLine Rser=.1
SYMBOL diode -736 -128 M180
WINDOW 0 30 57 Left 2
WINDOW 3 24 0 Left 2
SYMATTR InstName U3
SYMATTR Value PhotoCell
SYMATTR Prefix X
SYMBOL schottky -608 -192 R270
WINDOW 0 32 32 VTop 2
WINDOW 3 0 32 VBottom 2
SYMATTR InstName D1
SYMATTR Value MBR745
SYMATTR Description Diode
SYMATTR Type diode
SYMBOL LT1634-1.25 -480 368 R0
SYMATTR InstName U4
TEXT 544 392 Left 2 !.tran 4m
TEXT -848 -24 Left 1 !.subckt PhotoCell B A\nC1 A B 1n\nV1 N001 B PWL 0 0 1m 6 2m 4 3m 6\nD1 N001 A S2\nR1 A N001 75\n.model S2 D(Ron=.1 Ilimit=5.1 epsilon=.5)\n.ends
TEXT 544 352 Left 2 !.ic V(out)=4.4
TEXT 0 -272 Bottom 2 ;LTC3625 - 1A High Efficiency 2-Cell Supercapacitor Charger with Automatic Cell Balancing\nLT1784 - 2.5MHz, Over-The-Top Low Power, Rail-to-Rail Input and Output Op Amp\nLT1634 - µPower Precision Shunt Voltage Reference\nSolar Powered SCAP Charger with MPPT\nInput: 6Voc Solar Panel, 4.4V MPP     Output: 4.9V (2.45Vmax/Cell)
TEXT -592 448 Left 2 ;Note:\n  If the simulation model is not found please update with the "Sync Release" command from the "Tools" menu.\n  It remains the customer's responsibility to verify proper and reliable operation in the actual application.\n  Component substitution and printed circuit board layout may significantly affect circuit performance or reliability.\n  Contact your local sales representative for assistance. This circuit is distributed to customers only for use with LTC parts.\n  Copyright © 2014 Linear Technology Inc. All rights reserved.
