Version 4
SHEET 1 1792 1024
WIRE -112 -272 -224 -272
WIRE -16 -272 -112 -272
WIRE 432 -272 -16 -272
WIRE -224 -256 -224 -272
WIRE -112 -256 -112 -272
WIRE -16 -224 -16 -272
WIRE 96 -224 -16 -224
WIRE 560 -224 384 -224
WIRE 560 -208 560 -224
WIRE -224 -160 -224 -176
WIRE -112 -160 -112 -192
WIRE -16 -128 -16 -224
WIRE 96 -128 -16 -128
WIRE 432 -128 432 -272
WIRE 432 -128 384 -128
WIRE 560 -112 560 -128
WIRE -16 -32 -16 -128
WIRE 96 -32 -16 -32
WIRE 464 -32 384 -32
WIRE 560 -32 544 -32
WIRE 640 -32 560 -32
WIRE 752 -32 640 -32
WIRE 864 -32 752 -32
WIRE 560 -16 560 -32
WIRE 640 -16 640 -32
WIRE 752 -16 752 -32
WIRE 864 -16 864 -32
WIRE -16 64 -16 -32
WIRE 0 64 -16 64
WIRE 96 64 80 64
WIRE 560 64 560 48
WIRE 560 64 384 64
WIRE 640 64 560 64
WIRE 640 80 640 64
WIRE 752 80 752 48
WIRE 864 80 864 64
WIRE 96 160 80 160
WIRE 400 160 384 160
WIRE 640 176 640 160
WIRE -16 256 -16 64
WIRE 96 256 -16 256
WIRE 432 256 432 -128
WIRE 432 256 384 256
WIRE -16 352 -16 256
WIRE 96 352 -16 352
WIRE 432 352 432 256
WIRE 432 352 384 352
WIRE -256 448 -384 448
WIRE -160 448 -256 448
WIRE -48 448 -160 448
WIRE 0 448 -48 448
WIRE 96 448 80 448
WIRE 400 448 384 448
WIRE 496 448 480 448
WIRE 576 448 496 448
WIRE 688 448 576 448
WIRE 800 448 688 448
WIRE -384 464 -384 448
WIRE -256 464 -256 448
WIRE -160 464 -160 448
WIRE -48 464 -48 448
WIRE 496 464 496 448
WIRE 576 464 576 448
WIRE 688 464 688 448
WIRE 800 464 800 448
WIRE -48 544 -48 528
WIRE -48 544 -160 544
WIRE 96 544 -48 544
WIRE 496 544 496 528
WIRE 496 544 384 544
WIRE 576 544 496 544
WIRE -384 560 -384 544
WIRE -256 560 -256 528
WIRE -160 560 -160 544
WIRE 576 560 576 544
WIRE 688 560 688 528
WIRE 800 560 800 544
WIRE 96 640 80 640
WIRE 400 640 384 640
WIRE -160 656 -160 640
WIRE 576 656 576 640
FLAG -224 -160 0
FLAG 80 160 0
FLAG 400 160 0
FLAG 640 176 0
FLAG 752 80 0
FLAG 864 80 0
FLAG 400 640 0
FLAG 576 656 0
FLAG 688 560 0
FLAG 800 560 0
FLAG 80 640 0
FLAG -160 656 0
FLAG -256 560 0
FLAG -384 560 0
FLAG 864 -32 OUT1
FLAG 800 448 OUT2
FLAG -384 448 OUT3
FLAG -224 -272 IN
FLAG 560 -112 0
FLAG -112 -160 0
SYMBOL voltage -224 -272 R0
WINDOW 123 0 0 Left 0
WINDOW 39 0 0 Left 0
SYMATTR InstName V1
SYMATTR Value 5
SYMBOL res -16 80 R270
WINDOW 3 0 56 VBottom 0
WINDOW 0 32 56 VTop 0
SYMATTR Value 470K
SYMATTR InstName R1
SYMBOL ind 448 -16 R270
WINDOW 0 32 56 VTop 0
WINDOW 3 5 56 VBottom 0
SYMATTR InstName L1
SYMATTR Value 2.2µ
SYMATTR SpiceLine Rser=10m
SYMBOL res 624 -32 R0
SYMATTR InstName R2
SYMATTR Value 187K
SYMBOL res 624 64 R0
SYMATTR InstName R3
SYMATTR Value 150K
SYMBOL cap 544 -16 R0
WINDOW 3 20 64 Left 0
SYMATTR Value 10p
SYMATTR InstName C1
SYMBOL cap 736 -16 R0
SYMATTR InstName C2
SYMATTR Value 10µ
SYMATTR SpiceLine Rser=1m
SYMBOL ind 384 464 R270
WINDOW 0 32 56 VTop 0
WINDOW 3 5 56 VBottom 0
SYMATTR InstName L2
SYMATTR Value 2.5µ
SYMATTR SpiceLine Rser=10m
SYMBOL res 560 448 R0
SYMATTR InstName R4
SYMATTR Value 232K
SYMBOL res 560 544 R0
SYMATTR InstName R5
SYMATTR Value 464K
SYMBOL cap 480 464 R0
WINDOW 3 20 64 Left 0
SYMATTR Value 20p
SYMATTR InstName C3
SYMBOL cap 672 464 R0
SYMATTR InstName C4
SYMATTR Value 4.7µ
SYMATTR SpiceLine Rser=1m
SYMBOL ind 96 464 M270
WINDOW 0 32 56 VTop 0
WINDOW 3 5 56 VBottom 0
SYMATTR InstName L3
SYMATTR Value 2.5µ
SYMATTR SpiceLine Rser=10m
SYMBOL res -176 448 R0
SYMATTR InstName R6
SYMATTR Value 412K
SYMBOL res -176 544 R0
SYMATTR InstName R7
SYMATTR Value 475K
SYMBOL cap -64 464 R0
WINDOW 3 20 64 Left 0
SYMATTR Value 20p
SYMATTR InstName C5
SYMBOL cap -272 464 R0
SYMATTR InstName C6
SYMATTR Value 4.7µ
SYMATTR SpiceLine Rser=1m
SYMBOL res 848 -32 R0
SYMATTR InstName Rload1
SYMATTR Value 2
SYMBOL res 784 448 R0
SYMATTR InstName Rload2
SYMATTR Value 3
SYMBOL res -400 448 R0
SYMATTR InstName Rload3
SYMATTR Value 2
SYMBOL voltage 560 -224 R0
WINDOW 123 24 146 Left 0
WINDOW 39 24 125 Left 0
SYMATTR Value PULSE(3 0 1m 20n 20n 1u 2u 5)
SYMATTR InstName V2
SYMBOL cap -128 -256 R0
SYMATTR InstName C7
SYMATTR Value 10µ
SYMBOL PowerProducts\\LTC3569 240 208 R0
SYMATTR InstName U1
TEXT 728 664 Left 0 !.tran 1.2m startup
TEXT 752 -32 Bottom 0 ;1.8V @ 1.2A
TEXT -256 448 Bottom 0 ;1.5V @ 0.6A
TEXT 688 448 Bottom 0 ;1.2V @ 0.6A
TEXT -296 704 Left 0 ;Notes:\n  To demonstrate LTC3569 reference program feature at the time 1ms 5 pulses apply to EN1 pin. \n  It changes output voltage OUT1 from 1.8V to 1.5V, see datasheet for details. \n \n  If the simulation model is not found please update with the "Sync Release" command from the "Tools" menu.\n  It remains the customer's responsibility to verify proper and reliable operation in the actual application.\n  Component substitution and printed circuit board layout may significantly affect circuit performance or reliability\n  Contact your local sales representative for assistance.   This circuit is distributed to customers only for use with\n  LTC parts Copyright © 2011 Linear Technology Inc. All rights reserved.
TEXT 248 -304 Bottom 0 ;LTC3569 - Triple Buck Regulator With 1.2A and Two 600mA Outputs and Individual Programmable References\nInput: 2.5V to 5.5V      Output 1: 1.8V @ 1.2A     Output 2: 1.2V @ 0.6A     Output 3: 1.5V @ 0.6A
