Version 4
SHEET 1 2020 904
WIRE 176 160 80 160
WIRE 272 160 176 160
WIRE 560 160 272 160
WIRE 832 160 560 160
WIRE 80 176 80 160
WIRE 176 176 176 160
WIRE 272 176 272 160
WIRE 832 176 832 160
WIRE 560 208 560 160
WIRE 80 272 80 256
WIRE 176 272 176 240
WIRE 272 272 272 256
WIRE 400 272 272 272
WIRE 832 272 832 256
WIRE 832 272 720 272
WIRE 928 272 832 272
WIRE 1056 272 992 272
WIRE 1104 272 1056 272
WIRE 1200 272 1104 272
WIRE 1296 272 1200 272
WIRE 272 288 272 272
WIRE 1104 288 1104 272
WIRE 1200 288 1200 272
WIRE 1296 288 1296 272
WIRE 784 352 720 352
WIRE 272 368 272 352
WIRE 1104 384 1104 352
WIRE 1200 384 1200 352
WIRE 1296 384 1296 368
WIRE 832 400 832 368
WIRE 224 448 160 448
WIRE 336 448 304 448
WIRE 400 448 336 448
WIRE 784 448 720 448
WIRE 912 448 784 448
WIRE 1056 448 1056 272
WIRE 1056 448 992 448
WIRE 160 464 160 448
WIRE 336 464 336 448
WIRE 784 464 784 448
WIRE 560 528 560 512
WIRE 160 544 160 528
WIRE 336 544 336 528
WIRE 784 560 784 544
FLAG 80 160 IN
FLAG 272 368 0
FLAG 832 400 0
FLAG 1296 272 OUT
FLAG 176 272 0
FLAG 80 272 0
FLAG 160 544 0
FLAG 336 544 0
FLAG 784 560 0
FLAG 560 528 0
FLAG 1104 384 0
FLAG 1200 384 0
FLAG 1296 384 0
SYMBOL voltage 80 160 R0
WINDOW 123 0 0 Left 2
WINDOW 39 12 125 Left 2
SYMATTR InstName V1
SYMATTR Value 5
SYMBOL cap 160 176 R0
SYMATTR InstName C1
SYMATTR Value 10µ
SYMBOL cap 1088 288 R0
WINDOW 3 34 33 Left 2
WINDOW 123 24 58 Left 2
SYMATTR Value 10µ
SYMATTR Value2 x2
SYMATTR InstName C2
SYMBOL cap 1184 288 R0
SYMATTR InstName C3
SYMATTR Value 68µ
SYMBOL LTC3872 560 352 R0
SYMATTR InstName U1
SYMBOL cap 144 464 R0
SYMATTR InstName C4
SYMATTR Value 1000p
SYMBOL res 320 432 R90
WINDOW 0 0 56 VBottom 2
WINDOW 3 32 56 VTop 2
SYMATTR InstName R1
SYMATTR Value 52.3K
SYMBOL cap 320 464 R0
SYMATTR InstName C5
SYMATTR Value 100p
SYMBOL cap 256 288 R0
SYMATTR InstName C6
SYMATTR Value .00068µ
SYMBOL ind 816 160 R0
SYMATTR InstName L1
SYMATTR Value 8.2µ
SYMATTR SpiceLine Rser=11.6m
SYMBOL nmos 784 272 R0
SYMATTR InstName Q1
SYMATTR Value BSZ088N03LS
SYMBOL res 768 448 R0
SYMATTR InstName R2
SYMATTR Value 12.1K
SYMBOL res 1008 432 R90
WINDOW 0 0 56 VBottom 2
WINDOW 3 32 56 VTop 2
SYMATTR InstName R3
SYMATTR Value 232K
SYMBOL schottky 928 288 R270
WINDOW 0 32 32 VTop 2
WINDOW 3 0 32 VBottom 2
SYMATTR InstName D1
SYMATTR Value B540C
SYMATTR Description Diode
SYMATTR Type diode
SYMBOL res 1280 272 R0
SYMATTR InstName Rload
SYMATTR Value 24
SYMBOL res 256 160 R0
SYMATTR InstName R4
SYMATTR Value 4.7Meg
TEXT 1072 488 Left 2 !.tran 3.5m startup
TEXT 640 144 Bottom 2 ;LTC3872 - No Rsense Current Mode Boost DC/DC Controller\nHigh Efficiency 5V Input, 24V Output Boost Converter\n Input: 3V to 9.8V  Output: 24V @ 1A
TEXT -8 576 Left 2 ;Note:\n  A smaller RUN/SS capacitors is being used to reduce simulation time. The typical value should be 0.068µF.\n  If the simulation model is not found please update with the "Sync Release" command from the "Tools" menu.\n  It remains the customer's responsibility to verify proper and reliable operation in the actual application.\n  Component substitution and printed circuit board layout may significantly affect circuit performance or reliability\n  Contact your local sales representative for assistance. This circuit is distributed to customers only for use with LTC parts\n  Copyright © 2014 Linear Technology Inc. All rights reserved.
