Version 4
SHEET 1 1084 1672
WIRE -1408 176 -1520 176
WIRE -1312 176 -1408 176
WIRE -880 176 -1312 176
WIRE -224 176 -880 176
WIRE -1520 192 -1520 176
WIRE -1408 192 -1408 176
WIRE -784 192 -1104 192
WIRE -448 192 -784 192
WIRE -1312 224 -1312 176
WIRE -880 224 -880 176
WIRE -784 224 -784 192
WIRE -224 224 -224 176
WIRE -1520 288 -1520 272
WIRE -1408 288 -1408 256
WIRE -960 304 -1264 304
WIRE -272 304 -512 304
WIRE -1104 320 -1104 192
WIRE -448 320 -448 192
WIRE -1104 400 -1104 384
WIRE -960 400 -1104 400
WIRE -448 400 -448 384
WIRE -448 400 -512 400
WIRE -1104 416 -1104 400
WIRE -448 416 -448 400
WIRE -1824 496 -1952 496
WIRE -1712 496 -1824 496
WIRE -1632 496 -1712 496
WIRE -1600 496 -1632 496
WIRE -1568 496 -1600 496
WIRE -1456 496 -1488 496
WIRE -1424 496 -1456 496
WIRE -1312 496 -1312 320
WIRE -1312 496 -1344 496
WIRE -1104 496 -1104 480
WIRE -1104 496 -1312 496
WIRE -960 496 -1104 496
WIRE -448 496 -448 480
WIRE -448 496 -512 496
WIRE -224 496 -224 320
WIRE -224 496 -448 496
WIRE -192 496 -224 496
WIRE -80 496 -112 496
WIRE -64 496 -80 496
WIRE 48 496 16 496
WIRE 80 496 48 496
WIRE 128 496 80 496
WIRE 224 496 128 496
WIRE 336 496 224 496
WIRE -1952 512 -1952 496
WIRE -1824 512 -1824 496
WIRE -1712 512 -1712 496
WIRE -1312 512 -1312 496
WIRE -224 512 -224 496
WIRE 128 512 128 496
WIRE 224 512 224 496
WIRE 336 512 336 496
WIRE -960 592 -1264 592
WIRE -272 592 -512 592
WIRE -1952 608 -1952 592
WIRE -1824 608 -1824 576
WIRE -1712 608 -1712 576
WIRE 128 608 128 576
WIRE 224 608 224 576
WIRE 336 608 336 592
WIRE -1312 624 -1312 608
WIRE -224 624 -224 608
WIRE -1456 688 -1456 496
WIRE -1152 688 -1456 688
WIRE -1024 688 -1072 688
WIRE -960 688 -1024 688
WIRE -464 688 -512 688
WIRE -384 688 -464 688
WIRE -80 688 -80 496
WIRE -80 688 -304 688
WIRE -1024 704 -1024 688
WIRE -464 704 -464 688
WIRE -1632 784 -1632 496
WIRE -1600 784 -1600 496
WIRE -1152 784 -1600 784
WIRE -1024 784 -1024 768
WIRE -1024 784 -1072 784
WIRE -960 784 -1024 784
WIRE -464 784 -464 768
WIRE -464 784 -512 784
WIRE -384 784 -464 784
WIRE 48 784 48 496
WIRE 48 784 -304 784
WIRE 80 784 80 496
WIRE -1632 880 -1632 864
WIRE -960 880 -1632 880
WIRE 80 880 80 864
WIRE 80 880 -512 880
WIRE -1632 896 -1632 880
WIRE 80 896 80 880
WIRE -1248 976 -1296 976
WIRE -1136 976 -1168 976
WIRE -960 976 -1136 976
WIRE -352 976 -512 976
WIRE -288 976 -352 976
WIRE -176 976 -208 976
WIRE -1632 992 -1632 976
WIRE -1296 992 -1296 976
WIRE -1136 992 -1136 976
WIRE -352 992 -352 976
WIRE -176 992 -176 976
WIRE 80 992 80 976
WIRE -1296 1072 -1296 1056
WIRE -1136 1072 -1136 1056
WIRE -1040 1072 -1056 1072
WIRE -960 1072 -976 1072
WIRE -496 1072 -512 1072
WIRE -416 1072 -432 1072
WIRE -352 1072 -352 1056
WIRE -176 1072 -176 1056
WIRE -496 1264 -512 1264
WIRE -400 1264 -416 1264
WIRE -880 1360 -880 1344
WIRE -736 1360 -736 1344
WIRE -592 1360 -592 1344
FLAG -1520 288 0
FLAG -1408 288 0
FLAG -1312 624 0
FLAG -1712 608 0
FLAG -1824 608 0
FLAG -1952 496 VOUT1
FLAG -1632 992 0
FLAG -1296 1072 0
FLAG -1056 1072 0
FLAG -880 1360 0
FLAG -736 1360 0
FLAG -592 1360 0
FLAG -400 1264 0
FLAG -416 1072 0
FLAG -224 624 0
FLAG 128 608 0
FLAG 224 608 0
FLAG 336 496 OUT2
FLAG 80 992 0
FLAG -176 1072 0
FLAG -1952 608 0
FLAG 336 608 0
FLAG -1136 1072 0
FLAG -352 1072 0
FLAG -1520 176 IN
SYMBOL voltage -1520 176 R0
SYMATTR InstName V1
SYMATTR Value 12
SYMBOL cap -1424 192 R0
WINDOW 3 39 36 Left 2
WINDOW 123 24 64 Left 2
SYMATTR Value 10µ
SYMATTR Value2 x3
SYMATTR InstName C1
SYMATTR SpiceLine Rser=5m
SYMBOL nmos -1264 224 M0
WINDOW 0 2 21 Right 2
WINDOW 3 5 60 Right 2
SYMATTR InstName Q1
SYMATTR Value RJK0305DPB
SYMBOL nmos -1264 512 M0
WINDOW 0 -2 22 Right 2
WINDOW 3 0 62 Right 2
SYMATTR InstName Q2
SYMATTR Value RJK0301DPB
SYMBOL schottky -1120 320 R0
SYMATTR InstName D1
SYMATTR Value CMDSH2-3
SYMATTR Description Diode
SYMATTR Type diode
SYMBOL cap -1120 416 R0
SYMATTR InstName C2
SYMATTR Value .1µ
SYMBOL ind -1328 512 M270
WINDOW 0 32 56 VTop 2
WINDOW 3 5 56 VBottom 2
SYMATTR InstName L1
SYMATTR Value 0.4µ
SYMATTR SpiceLine Rser=0.47m
SYMBOL cap -1728 512 R0
SYMATTR InstName C3
SYMATTR Value 100µ
SYMATTR SpiceLine Rser=2m
SYMBOL res -1168 704 R270
WINDOW 0 32 56 VTop 2
WINDOW 3 0 56 VBottom 2
SYMATTR InstName R1
SYMATTR Value 10
SYMBOL cap -1040 704 R0
SYMATTR InstName C4
SYMATTR Value 1n
SYMBOL res -1648 768 R0
SYMATTR InstName R2
SYMATTR Value 30.1K
SYMBOL res -1648 880 R0
SYMATTR InstName R3
SYMATTR Value 20K
SYMBOL cap -1312 992 R0
SYMATTR InstName C5
SYMATTR Value 1.5n
SYMBOL res -1152 960 R90
WINDOW 0 0 56 VBottom 2
WINDOW 3 32 56 VTop 2
SYMATTR InstName R4
SYMATTR Value 5.9K
SYMBOL cap -1152 992 R0
SYMATTR InstName C6
SYMATTR Value 100p
SYMBOL cap -976 1056 R90
WINDOW 0 0 32 VBottom 2
WINDOW 3 32 32 VTop 2
SYMATTR InstName C7
SYMATTR Value 1n
SYMBOL res -512 1280 R270
WINDOW 0 32 56 VTop 2
WINDOW 3 0 56 VBottom 2
SYMATTR InstName R5
SYMATTR Value 100K
SYMBOL cap -496 1088 R270
WINDOW 0 32 32 VTop 2
WINDOW 3 0 32 VBottom 2
SYMATTR InstName C8
SYMATTR Value 1n
SYMBOL nmos -272 224 R0
WINDOW 0 60 22 Left 2
WINDOW 3 66 62 Left 2
SYMATTR InstName Q3
SYMATTR Value RJK0305DPB
SYMBOL nmos -272 512 R0
WINDOW 0 1 24 Right 2
WINDOW 3 -1 59 Right 2
SYMATTR InstName Q4
SYMATTR Value RJK0301DPB
SYMBOL schottky -464 320 R0
SYMATTR InstName D2
SYMATTR Value CMDSH2-3
SYMATTR Description Diode
SYMATTR Type diode
SYMBOL cap -464 416 R0
SYMATTR InstName C9
SYMATTR Value .1µ
SYMBOL ind -208 512 R270
WINDOW 0 32 56 VTop 2
WINDOW 3 5 56 VBottom 2
SYMATTR InstName L2
SYMATTR Value 0.4µ
SYMATTR SpiceLine Rser=0.47m
SYMBOL cap 112 512 R0
SYMATTR InstName C10
SYMATTR Value 100µ
SYMATTR SpiceLine Rser=2m
SYMBOL res -288 672 R90
WINDOW 0 0 56 VBottom 2
WINDOW 3 32 56 VTop 2
SYMATTR InstName R6
SYMATTR Value 10
SYMBOL cap -480 704 R0
SYMATTR InstName C11
SYMATTR Value 1n
SYMBOL res 64 768 R0
SYMATTR InstName R7
SYMATTR Value 20K
SYMBOL res 64 880 R0
SYMATTR InstName R8
SYMATTR Value 20K
SYMBOL cap -192 992 R0
SYMATTR InstName C12
SYMATTR Value 1.5n
SYMBOL res -304 992 R270
WINDOW 0 32 56 VTop 2
WINDOW 3 0 56 VBottom 2
SYMATTR InstName R9
SYMATTR Value 5.9K
SYMBOL cap -368 992 R0
SYMATTR InstName C13
SYMATTR Value 220p
SYMBOL LTC3869 -736 784 R0
SYMATTR InstName U1
SYMBOL polcap -1840 512 R0
WINDOW 3 36 37 Left 2
WINDOW 123 26 64 Left 2
SYMATTR Value 330µ
SYMATTR Value2 x2
SYMATTR InstName C14
SYMATTR SpiceLine Rser=9m
SYMBOL polcap 208 512 R0
WINDOW 3 42 37 Left 2
WINDOW 123 26 64 Left 2
SYMATTR Value 330µ
SYMATTR Value2 x2
SYMATTR InstName C15
SYMATTR SpiceLine Rser=9m
SYMBOL res -1472 480 R90
WINDOW 0 0 56 VBottom 2
WINDOW 3 32 56 VTop 2
SYMATTR InstName R10
SYMATTR Value 2m
SYMBOL res -80 512 R270
WINDOW 0 32 56 VTop 2
WINDOW 3 0 56 VBottom 2
SYMATTR InstName R11
SYMATTR Value 2m
SYMBOL res -1168 800 R270
WINDOW 0 32 56 VTop 2
WINDOW 3 0 56 VBottom 2
SYMATTR InstName R12
SYMATTR Value 10
SYMBOL res -288 768 R90
WINDOW 0 0 56 VBottom 2
WINDOW 3 32 56 VTop 2
SYMATTR InstName R13
SYMATTR Value 10
SYMBOL res -1968 496 R0
SYMATTR InstName Rload1
SYMATTR Value .1
SYMBOL res 320 496 R0
SYMATTR InstName Rload2
SYMATTR Value .08
TEXT -1952 464 Bottom 2 ;1.5V, MAX 15A
TEXT 352 456 Bottom 2 ;1.2V, MAX 15A
TEXT -736 160 Bottom 2 ;LTC3869 - Dual, 2-Phase Synchronous Step-Down DC/DC Controller\nHigh Efficiency Dual 1.5V/1.2V Buck Converter using Rsense Current Sensing\nInput: 4.5V-14V     Outputs: 1.5V @ 15A and 1.2V @ 15A, Fsw = 400kHz
TEXT -1304 1384 Left 2 ;Notes:\n  A 100 Ohm & 1nF Rsense filter may be required to counter effects of Rsense ESL. Refer to the datasheet for details. \n  If the simulation model is not found please update with the "Sync Release" command from the "Tools" menu.\n  It remains the customer's responsibility to verify proper and reliable operation in the actual application.\n  Component substitution and printed circuit board layout may significantly affect circuit performance or reliability.\n  Contact your local sales representative for assistance. This circuit is distributed to customers only for use with LTC parts.\n  Copyright © 2014 Linear Technology Inc. All rights reserved.
TEXT -192 1320 Left 2 !.tran .7m startup
