Version 4
SHEET 1 1288 780
WIRE -80 -128 -160 -128
WIRE -32 -128 -80 -128
WIRE 112 -128 -32 -128
WIRE 192 -128 112 -128
WIRE 272 -128 192 -128
WIRE 384 -128 272 -128
WIRE 464 -128 384 -128
WIRE 512 -128 464 -128
WIRE -160 -112 -160 -128
WIRE 112 -112 112 -128
WIRE 192 -112 192 -128
WIRE 272 -112 272 -128
WIRE 512 -112 512 -128
WIRE -32 -32 -32 -128
WIRE 48 -32 -32 -32
WIRE 384 -32 384 -128
WIRE 384 -32 336 -32
WIRE 512 -32 512 -48
WIRE -160 -16 -160 -32
WIRE -32 -16 -32 -32
WIRE 384 -16 384 -32
WIRE -32 80 -32 64
WIRE 48 80 -32 80
WIRE 384 80 384 64
WIRE 384 80 336 80
WIRE -80 96 -80 -128
WIRE 464 96 464 -128
WIRE -80 192 -80 176
WIRE 48 192 -80 192
WIRE 464 192 464 176
WIRE 464 192 336 192
WIRE -240 304 -368 304
WIRE -160 304 -240 304
WIRE -16 304 -160 304
WIRE 48 304 -16 304
WIRE 384 304 336 304
WIRE 496 304 384 304
WIRE 576 304 496 304
WIRE -368 320 -368 304
WIRE -240 320 -240 304
WIRE -160 320 -160 304
WIRE -16 320 -16 304
WIRE 384 320 384 304
WIRE 496 320 496 304
WIRE 576 320 576 304
WIRE -368 416 -368 400
WIRE -240 416 -240 384
WIRE -160 416 -160 400
WIRE -16 416 -16 384
WIRE -16 416 -160 416
WIRE 48 416 -16 416
WIRE 384 416 384 400
WIRE 384 416 336 416
WIRE 496 416 496 384
WIRE 576 416 576 400
WIRE -160 432 -160 416
WIRE 384 432 384 416
WIRE 112 512 112 496
WIRE 192 512 192 496
WIRE 272 512 272 496
WIRE -160 528 -160 512
WIRE 384 528 384 512
FLAG 384 528 0
FLAG 576 416 0
FLAG 496 416 0
FLAG 192 512 0
FLAG 112 512 0
FLAG -160 528 0
FLAG -368 416 0
FLAG -240 416 0
FLAG -160 -16 0
FLAG -368 304 OUT1
FLAG 576 304 OUT2
FLAG -160 -128 IN
FLAG 512 -32 0
FLAG 272 512 0
SYMBOL ind 368 -32 R0
SYMATTR InstName L1
SYMATTR Value 4.7µ
SYMATTR SpiceLine Rser=70m Rpar=2K
SYMBOL PowerProducts\\LTC3527 192 192 R0
SYMATTR InstName U1
SYMBOL res 368 304 R0
SYMATTR InstName R1
SYMATTR Value 619K
SYMBOL res 368 416 R0
SYMATTR InstName R2
SYMATTR Value 1.21Meg
SYMBOL cap 480 320 R0
SYMATTR InstName C1
SYMATTR Value 10µ
SYMBOL ind -48 -32 R0
SYMATTR InstName L2
SYMATTR Value 4.7µ
SYMATTR SpiceLine Rser=70m Rpar=2K
SYMBOL res -176 304 R0
SYMATTR InstName R3
SYMATTR Value 1.78Meg
SYMBOL res -176 416 R0
SYMATTR InstName R4
SYMATTR Value 1Meg
SYMBOL cap -256 320 R0
SYMATTR InstName C2
SYMATTR Value 10µ
SYMBOL voltage -160 -128 R0
SYMATTR InstName V1
SYMATTR Value 2.5
SYMBOL res -384 304 R0
SYMATTR InstName Rload1
SYMATTR Value 22
SYMBOL res 560 304 R0
SYMATTR InstName Rload2
SYMATTR Value 12
SYMBOL res 448 80 R0
SYMATTR InstName R5
SYMATTR Value 100K
SYMBOL res -96 80 R0
SYMATTR InstName R6
SYMATTR Value 100K
SYMBOL cap 496 -112 R0
SYMATTR InstName C3
SYMATTR Value 10µ
SYMBOL cap -32 320 R0
SYMATTR InstName C4
SYMATTR Value 10p
TEXT 480 560 Left 2 !.tran 450u startup
TEXT 200 -152 Bottom 2 ;LTC3527 - Dual 800mA/400mA 1.2MHz/2.2MHz Synchronous Step-Up DC/DC Converter\nInputs: 0.7V to 5.5V     Ouputs: 3.3V @ 150mA & 1.8V @ 150mA
TEXT -232 304 Bottom 2 ;3.3V
TEXT 496 304 Bottom 2 ;1.8V
TEXT 192 552 Top 2 ;Mode - Auto Burst\nFreq - 1.2MHz
TEXT -368 608 Left 2 ;Note:\n  If the simulation model is not found please update with the "Sync Release" command from the "Tools" menu.\n  It remains the customer's responsibility to verify proper and reliable operation in the actual application.\n  Component substitution and printed circuit board layout may significantly affect circuit performance or reliability.\n  Contact your local sales representative for assistance. This circuit is distributed to customers only for use with LTC parts.\n  Copyright © 2011 Linear Technology Inc. All rights reserved.
