Version 4
SHEET 1 1876 2012
WIRE -848 320 -944 320
WIRE -704 320 -848 320
WIRE -544 320 -704 320
WIRE 176 320 -544 320
WIRE -944 352 -944 320
WIRE -848 368 -848 320
WIRE -544 384 -544 320
WIRE -496 384 -544 384
WIRE -384 384 -416 384
WIRE -336 384 -384 384
WIRE -256 384 -272 384
WIRE -288 448 -576 448
WIRE 32 448 -288 448
WIRE 336 448 32 448
WIRE 512 448 336 448
WIRE -944 464 -944 432
WIRE -848 464 -848 432
WIRE -576 464 -576 448
WIRE 336 464 336 448
WIRE 32 480 32 448
WIRE -704 496 -704 320
WIRE -384 496 -384 384
WIRE -288 496 -288 448
WIRE 176 496 176 320
WIRE 336 544 336 528
WIRE -464 576 -656 576
WIRE 128 576 -16 576
WIRE -704 672 -704 592
WIRE -656 672 -704 672
WIRE -576 672 -576 528
WIRE -576 672 -592 672
WIRE -464 672 -576 672
WIRE 32 672 32 544
WIRE 32 672 -16 672
WIRE 64 672 32 672
WIRE 176 672 176 592
WIRE 176 672 128 672
WIRE -1120 768 -1232 768
WIRE -1024 768 -1120 768
WIRE -960 768 -1024 768
WIRE -928 768 -960 768
WIRE -816 768 -848 768
WIRE -704 768 -704 672
WIRE -704 768 -816 768
WIRE -464 768 -704 768
WIRE 176 768 176 672
WIRE 176 768 -16 768
WIRE 336 768 176 768
WIRE 368 768 336 768
WIRE 480 768 448 768
WIRE 544 768 480 768
WIRE 656 768 544 768
WIRE 784 768 656 768
WIRE -1232 784 -1232 768
WIRE -704 784 -704 768
WIRE 176 784 176 768
WIRE 656 784 656 768
WIRE 784 784 784 768
WIRE -1120 800 -1120 768
WIRE -1024 800 -1024 768
WIRE 544 800 544 768
WIRE -816 832 -816 768
WIRE 336 832 336 768
WIRE -464 864 -656 864
WIRE 128 864 -16 864
WIRE -1232 880 -1232 864
WIRE -1120 880 -1120 864
WIRE -1024 880 -1024 864
WIRE -704 896 -704 880
WIRE 176 896 176 880
WIRE 544 896 544 864
WIRE 656 896 656 848
WIRE 784 896 784 864
WIRE -960 960 -960 768
WIRE -928 960 -960 960
WIRE -816 960 -816 912
WIRE -816 960 -848 960
WIRE -560 960 -816 960
WIRE -464 960 -560 960
WIRE 32 960 -16 960
WIRE 336 960 336 912
WIRE 336 960 32 960
WIRE 368 960 336 960
WIRE 480 960 480 768
WIRE 480 960 448 960
WIRE -560 976 -560 960
WIRE 32 976 32 960
WIRE -960 1056 -960 960
WIRE -560 1056 -560 1040
WIRE -560 1056 -960 1056
WIRE -464 1056 -560 1056
WIRE 32 1056 32 1040
WIRE 32 1056 -16 1056
WIRE 480 1056 480 960
WIRE 480 1056 32 1056
WIRE -960 1152 -960 1056
WIRE -928 1152 -960 1152
WIRE -816 1152 -848 1152
WIRE -464 1152 -816 1152
WIRE 352 1152 -16 1152
WIRE 384 1152 352 1152
WIRE 480 1152 480 1056
WIRE 480 1152 464 1152
WIRE -816 1184 -816 1152
WIRE 352 1184 352 1152
WIRE -704 1248 -736 1248
WIRE -608 1248 -624 1248
WIRE -464 1248 -608 1248
WIRE 112 1248 -16 1248
WIRE 160 1248 112 1248
WIRE 272 1248 240 1248
WIRE -736 1264 -736 1248
WIRE 112 1264 112 1248
WIRE 272 1264 272 1248
WIRE -816 1280 -816 1264
WIRE -608 1280 -608 1248
WIRE 352 1280 352 1264
WIRE -464 1344 -528 1344
WIRE 32 1344 -16 1344
WIRE -736 1360 -736 1328
WIRE -608 1360 -608 1344
WIRE -528 1360 -528 1344
WIRE 32 1360 32 1344
WIRE 112 1360 112 1328
WIRE 272 1360 272 1328
WIRE -528 1440 -528 1424
WIRE -464 1440 -480 1440
WIRE 0 1440 -16 1440
WIRE 32 1440 32 1424
WIRE -560 1536 -592 1536
WIRE -464 1536 -480 1536
WIRE 80 1536 -16 1536
WIRE 128 1536 80 1536
WIRE 240 1536 208 1536
WIRE 512 1536 512 448
WIRE 512 1536 240 1536
WIRE 80 1552 80 1536
WIRE -384 1632 -384 1616
WIRE -240 1632 -240 1616
WIRE -96 1632 -96 1616
WIRE 80 1648 80 1632
WIRE -592 1680 -592 1536
WIRE 240 1680 240 1536
WIRE 240 1680 -592 1680
FLAG -96 1632 0
FLAG 336 544 0
FLAG -704 896 0
FLAG -816 1280 0
FLAG -944 464 0
FLAG 176 896 0
FLAG 352 1280 0
FLAG -384 1632 0
FLAG -1120 880 0
FLAG -240 1632 0
FLAG 80 1648 0
FLAG -528 1440 0
FLAG -736 1360 0
FLAG 272 1360 0
FLAG 32 1440 0
FLAG -1024 880 0
FLAG 544 896 0
FLAG 656 896 0
FLAG -1232 768 OUT1
FLAG -256 384 0
FLAG 784 896 0
FLAG -1232 880 0
FLAG -848 464 0
FLAG 784 768 OUT2
FLAG 112 1360 0
FLAG -608 1360 0
SYMBOL NMOS -656 496 M0
WINDOW 0 26 -7 Right 0
WINDOW 3 35 104 Right 0
SYMATTR InstName Q1
SYMATTR Value HAT2168H
SYMBOL nmos -656 784 M0
WINDOW 0 -9 30 Right 0
WINDOW 3 28 105 Right 0
SYMATTR InstName Q2
SYMATTR Value HAT2165H
SYMBOL cap -656 656 M90
WINDOW 0 0 32 VBottom 0
WINDOW 3 32 32 VTop 0
SYMATTR InstName C1
SYMATTR Value .1µ
SYMBOL schottky -592 464 R0
SYMATTR Value 1N5817
SYMATTR InstName D1
SYMBOL cap 320 464 R0
SYMATTR InstName C2
SYMATTR Value 4.7µ
SYMBOL ind -832 784 M270
WINDOW 0 32 56 VTop 0
WINDOW 3 5 56 VBottom 0
SYMATTR InstName L1
SYMATTR Value 1.2µ
SYMATTR SpiceLine Ipk=24 Rser=0.00448 Rpar=883 Cpar=4.71p mfg="Wurth Elektronik" pn="744324100 WE-HC"
SYMBOL cap -576 976 R0
WINDOW 3 26 58 Left 0
SYMATTR Value .1µ
SYMATTR InstName C3
SYMBOL res -832 1168 R0
SYMATTR InstName R1
SYMATTR Value 20K
SYMBOL VOLTAGE -944 336 R0
WINDOW 123 0 0 Left 0
WINDOW 39 0 0 Left 0
SYMATTR InstName V1
SYMATTR Value 12
SYMBOL nmos 128 496 R0
SYMATTR InstName Q3
SYMATTR Value HAT2168H
SYMBOL nmos 128 784 R0
WINDOW 3 174 75 Right 0
WINDOW 0 54 31 Left 0
SYMATTR Value HAT2165H
SYMATTR InstName Q4
SYMBOL cap 128 656 R90
WINDOW 0 0 32 VBottom 0
WINDOW 3 32 32 VTop 0
SYMATTR InstName C4
SYMATTR Value .1µ
SYMBOL schottky 16 480 R0
SYMATTR InstName D2
SYMATTR Value 1N5817
SYMBOL cap 16 976 R0
SYMATTR InstName C5
SYMATTR Value .1µ
SYMBOL res 336 1168 R0
SYMATTR InstName R2
SYMATTR Value 20K
SYMBOL res 480 1168 M270
WINDOW 0 32 56 VTop 0
WINDOW 3 0 56 VBottom 0
SYMATTR InstName R3
SYMATTR Value 10.0K
SYMBOL ind 352 784 R270
WINDOW 0 32 56 VTop 0
WINDOW 3 5 56 VBottom 0
SYMATTR InstName L2
SYMATTR Value 470n
SYMATTR SpiceLine Ipk=24 Rser=0.003 Rpar=346 Cpar=4.16p mfg="Wurth Elektronik" pn="744312047 WE-HC"
SYMBOL RES -576 1552 R270
WINDOW 0 32 56 VTop 0
WINDOW 3 0 56 VBottom 0
SYMATTR InstName R4
SYMATTR Value 100K
SYMBOL PowerProducts\\LTC3850 -240 960 R0
SYMATTR InstName U1
SYMBOL cap -1136 800 R0
SYMATTR InstName C6
SYMATTR Value 47µ
SYMATTR SpiceLine Rser=2m
SYMBOL res 224 1520 R90
WINDOW 0 0 56 VBottom 0
WINDOW 3 32 56 VTop 0
SYMATTR InstName R5
SYMATTR Value 10K
SYMBOL res 64 1648 M180
WINDOW 0 36 76 Left 0
WINDOW 3 36 40 Left 0
SYMATTR InstName R6
SYMATTR Value 3.16K
SYMBOL cap -752 1264 R0
SYMATTR InstName C7
SYMATTR Value .001µ
SYMBOL cap -624 1280 R0
SYMATTR InstName C8
SYMATTR Value 100p
SYMBOL res -608 1232 R90
WINDOW 0 0 56 VBottom 0
WINDOW 3 32 56 VTop 0
SYMATTR InstName R7
SYMATTR Value 10K
SYMBOL cap -544 1360 R0
WINDOW 3 19 60 Left 0
SYMATTR Value 100p
SYMATTR InstName C9
SYMBOL cap 96 1264 R0
SYMATTR InstName C10
SYMATTR Value 100p
SYMBOL cap 256 1264 R0
SYMATTR InstName C11
SYMATTR Value .001µ
SYMBOL res 144 1264 R270
WINDOW 0 32 56 VTop 0
WINDOW 3 0 56 VBottom 0
SYMATTR InstName R8
SYMATTR Value 5.62K
SYMBOL cap 16 1360 R0
WINDOW 0 24 15 Left 0
SYMATTR InstName C12
SYMATTR Value 100p
SYMBOL res -832 816 R0
SYMATTR InstName R9
SYMATTR Value 4.02K
SYMBOL res -832 944 R90
WINDOW 0 0 56 VBottom 0
WINDOW 3 32 56 VTop 0
SYMATTR InstName R10
SYMATTR Value 5.62K
SYMBOL res -944 1168 R270
WINDOW 0 32 56 VTop 0
WINDOW 3 0 56 VBottom 0
SYMATTR InstName R11
SYMATTR Value 43.2K
SYMBOL cap 640 784 R0
WINDOW 40 28 72 Left 0
WINDOW 3 41 38 Left 0
SYMATTR SpiceLine2 x2
SYMATTR Value 47µ
SYMATTR InstName C13
SYMATTR SpiceLine Rser=2m
SYMBOL res 320 816 R0
SYMATTR InstName R12
SYMATTR Value 1.65K
SYMBOL res 464 944 R90
WINDOW 0 0 56 VBottom 0
WINDOW 3 32 56 VTop 0
SYMATTR InstName R13
SYMATTR Value 9.09K
SYMBOL polcap -1040 800 R0
SYMATTR InstName C14
SYMATTR Value 330µ
SYMATTR SpiceLine V=4 Irms=4.1 Rser=0.009 MTBF=0 Lser=0 mfg="KEMET" pn="T520D337M004ASE009" type="Tantalum" ppPkg=1
SYMBOL polcap 528 800 R0
SYMATTR InstName C15
SYMATTR Value 330µ
SYMATTR SpiceLine V=4 Irms=4.1 Rser=0.009 MTBF=0 Lser=0 mfg="KEMET" pn="T520D337M004ASE009" type="Tantalum" ppPkg=1
SYMBOL cap -336 400 R270
WINDOW 0 32 32 VTop 0
WINDOW 3 0 32 VBottom 0
SYMATTR InstName C16
SYMATTR Value 0.1µ
SYMBOL res -400 368 R90
WINDOW 0 0 56 VBottom 0
WINDOW 3 32 56 VTop 0
SYMATTR InstName R14
SYMATTR Value 10
SYMBOL res 768 768 R0
SYMATTR InstName Rload2
SYMATTR Value 0.12
SYMBOL res -1248 768 R0
SYMATTR InstName Rload1
SYMATTR Value 0.25
SYMBOL cap -864 368 R0
SYMATTR InstName C17
SYMATTR Value 22µ
SYMATTR SpiceLine Rser=2m
TEXT 424 1600 Left 0 !.tran 250u startup
TEXT -1296 1680 Left 0 ;Note:\n  If the simulation model is not found please update with the "Sync Release" command from the "Tools" menu.\n  It remains the customer's responsibility to verify proper and reliable operation in the actual application.\n  Component substitution and printed circuit board layout may significantly affect circuit performance or reliability\n  Contact your local sales representative for assistance. This circuit is distributed to customers only for use with LTC parts\n  Copyright © 2007 Linear Technology Inc. All rights reserved.
TEXT -1232 904 Top 0 ;2.5V @ 10A
TEXT 784 920 Top 0 ;1.2V @ 10A
TEXT -272 312 Bottom 0 ;LTC3850 synchronous step-down DC/DC converter\nInput: 12V   Outputs: 2.5V @ 10A and 1.2V @ 10A, Fswitch = 500kHz
TEXT 88 1704 Left 0 ;Notes:\n1. Small value are used for TRACK/SS capacitors to reduce simulation time.\n    The typical value for actual applications will vary from 10nF to 100nF.\n2. More output capacitors may be needed to meet load step and \n    output voltage requirements.
