Version 4
SHEET 1 2936 1972
WIRE 1344 1440 1344 1424
WIRE 1344 1568 1344 1520
WIRE 1456 1424 1344 1424
WIRE 1456 1472 1456 1424
WIRE 1456 1568 1456 1536
WIRE 1520 1248 1520 1216
WIRE 1520 1360 1520 1328
WIRE 1536 1424 1456 1424
WIRE 1536 1440 1536 1424
WIRE 1536 1536 1536 1520
WIRE 1536 1552 1536 1536
WIRE 1536 1648 1536 1632
WIRE 1632 1216 1520 1216
WIRE 1632 1264 1632 1216
WIRE 1632 1360 1632 1328
WIRE 1632 1424 1536 1424
WIRE 1632 1456 1632 1424
WIRE 1632 1536 1536 1536
WIRE 1632 1536 1632 1520
WIRE 1664 1424 1632 1424
WIRE 1712 1216 1632 1216
WIRE 1712 1328 1712 1216
WIRE 1760 1328 1712 1328
WIRE 1760 1424 1744 1424
WIRE 1760 1536 1632 1536
WIRE 1824 1216 1712 1216
WIRE 1824 1264 1824 1216
WIRE 1904 1216 1824 1216
WIRE 1904 1264 1904 1216
WIRE 1904 1616 1904 1584
WIRE 1984 1216 1904 1216
WIRE 1984 1264 1984 1216
WIRE 2064 1424 2048 1424
WIRE 2176 1424 2144 1424
WIRE 2176 1440 2176 1424
WIRE 2176 1536 2048 1536
WIRE 2176 1536 2176 1504
WIRE 2256 1424 2176 1424
WIRE 2256 1440 2256 1424
WIRE 2256 1536 2176 1536
WIRE 2256 1536 2256 1520
WIRE 2256 1552 2256 1536
WIRE 2256 1648 2256 1632
WIRE 2368 1424 2256 1424
WIRE 2368 1472 2368 1424
WIRE 2368 1568 2368 1536
WIRE 2464 1424 2368 1424
WIRE 2464 1456 2464 1424
WIRE 2464 1568 2464 1536
FLAG 1904 1616 0
FLAG 1520 1360 0
FLAG 2464 1568 0
FLAG 2368 1568 0
FLAG 1632 1360 0
FLAG 1520 1216 IN
FLAG 2256 1648 0
FLAG 1536 1648 0
FLAG 1456 1568 0
FLAG 2464 1424 OUT1
FLAG 1344 1424 OUT2
FLAG 1344 1568 0
SYMBOL ind 2048 1440 R270
WINDOW 0 32 56 VTop 0
WINDOW 3 5 56 VBottom 0
SYMATTR InstName L1
SYMATTR Value 2.2µ
SYMATTR SpiceLine Rser=.0042 Rpar=5K
SYMBOL RES 2240 1424 R0
SYMATTR InstName R1
SYMATTR Value 604K
SYMBOL VOLTAGE 1520 1232 R0
SYMATTR SpiceLine Rser=0.01
SYMATTR InstName V1
SYMATTR Value 3.3
SYMBOL cap 2352 1472 R0
SYMATTR InstName C1
SYMATTR Value 10µ
SYMATTR SpiceLine V=10 Irms=8.919 Rser=0.005 MTBF=0 Lser=0 mfg="KEMET" pn="C1210C106K8PAC" type="X5R" ppPkg=1
SYMBOL res 2240 1536 R0
WINDOW 0 35 46 Left 0
SYMATTR InstName R2
SYMATTR Value 604K
SYMBOL current 2464 1456 R0
WINDOW 123 0 0 Left 0
WINDOW 39 22 105 Left 0
WINDOW 3 22 76 Left 0
SYMATTR SpiceLine load
SYMATTR Value 800m
SYMATTR InstName I1
SYMBOL cap 1616 1264 R0
SYMATTR InstName C2
SYMATTR Value 10µ
SYMATTR SpiceLine V=10 Irms=8.919 Rser=0.005 MTBF=0 Lser=0 mfg="KEMET" pn="C1210C106K8PAC" type="X5R" ppPkg=1
SYMBOL cap 2160 1440 R0
SYMATTR InstName C3
SYMATTR Value 22p
SYMBOL ind 1760 1440 M270
WINDOW 0 32 56 VTop 0
WINDOW 3 5 56 VBottom 0
SYMATTR InstName L2
SYMATTR Value 2.2µ
SYMATTR SpiceLine Rser=.0042 Rpar=5K
SYMBOL cap 1616 1456 R0
WINDOW 0 38 27 Left 0
WINDOW 3 35 55 Left 0
SYMATTR InstName C4
SYMATTR Value 22p
SYMBOL RES 1520 1424 R0
WINDOW 3 26 87 Left 0
SYMATTR Value 887K
SYMATTR InstName R3
SYMBOL res 1520 1536 R0
SYMATTR InstName R4
SYMATTR Value 442K
SYMBOL cap 1440 1472 R0
SYMATTR InstName C5
SYMATTR Value 10µ
SYMATTR SpiceLine V=10 Irms=8.919 Rser=0.005 MTBF=0 Lser=0 mfg="KEMET" pn="C1210C106K8PAC" type="X5R" ppPkg=1
SYMBOL current 1344 1440 R0
WINDOW 123 0 0 Left 0
WINDOW 39 22 105 Left 0
WINDOW 3 22 76 Left 0
SYMATTR SpiceLine load
SYMATTR Value 800m
SYMATTR InstName I2
SYMBOL PowerProducts\\LTC3407-2 1904 1424 R0
SYMATTR InstName U1
TEXT 1992 1640 Left 0 !.tran 300u startup
TEXT 1304 1672 Left 0 ;Note:\n  If the simulation model is not found please update with the "Sync Release" command from the "Tools" menu.\n  It remains the customer's responsibility to verify proper and reliable operation in the actual application.\n  Component substitution and printed circuit board layout may significantly affect circuit performance or reliability.\n  Contact your local sales representative for assistance. This circuit is distributed to customers only for use with LTC parts.\n  Copyright © 2006 Linear Technology Inc. All rights reserved.
TEXT 1880 1144 Center 0 ;LTC3407-2 - Dual 2.25MHz, 800mA, Synchronous Step-Down Regulator in 3×3 DFN Package\nInput: 3.3V     Output1: 1.2V @ 800mA         Output2: 1.8V @ 800mA
