Version 4
SHEET 1 2112 1156
WIRE 832 32 320 32
WIRE 864 32 832 32
WIRE 944 32 928 32
WIRE 144 64 48 64
WIRE 240 64 144 64
WIRE 544 64 240 64
WIRE 672 64 544 64
WIRE 48 80 48 64
WIRE 144 80 144 64
WIRE 240 80 240 64
WIRE 544 96 544 64
WIRE 672 96 672 64
WIRE 48 176 48 160
WIRE 144 176 144 144
WIRE 240 176 240 144
WIRE 320 256 320 32
WIRE 336 256 320 256
WIRE 432 256 416 256
WIRE 832 256 832 32
WIRE 832 256 784 256
WIRE 832 272 832 256
WIRE 80 352 64 352
WIRE 432 352 160 352
WIRE 1008 352 784 352
WIRE 320 368 320 256
WIRE 208 448 192 448
WIRE 320 448 288 448
WIRE 432 448 320 448
WIRE 832 448 832 336
WIRE 832 448 784 448
WIRE 832 464 832 448
WIRE 336 544 320 544
WIRE 432 544 416 544
WIRE 832 544 832 528
WIRE 832 544 784 544
WIRE 896 544 832 544
WIRE 1008 544 1008 352
WIRE 1008 544 976 544
WIRE 1072 544 1008 544
WIRE 1184 544 1072 544
WIRE 1296 544 1184 544
WIRE 832 560 832 544
WIRE 1072 560 1072 544
WIRE 1184 560 1184 544
WIRE 1296 560 1296 544
WIRE 208 640 192 640
WIRE 432 640 272 640
WIRE 832 640 784 640
WIRE 912 640 832 640
WIRE 1008 640 1008 544
WIRE 1008 640 976 640
WIRE 1072 656 1072 624
WIRE 1184 656 1184 624
WIRE 1296 656 1296 640
WIRE 336 736 320 736
WIRE 432 736 400 736
WIRE 1008 736 1008 640
WIRE 1008 736 784 736
WIRE 1008 784 1008 736
WIRE 432 832 416 832
WIRE 800 832 784 832
WIRE 672 912 672 896
WIRE 544 944 544 896
WIRE 1008 944 1008 864
WIRE 1008 944 544 944
WIRE 1040 944 1008 944
WIRE 1136 944 1120 944
FLAG 1296 656 0
FLAG 1136 944 0
FLAG 1072 656 0
FLAG 192 640 0
FLAG 48 176 0
FLAG 320 736 0
FLAG 48 64 IN
FLAG 1296 544 OUT
FLAG 944 32 0
FLAG 320 544 0
FLAG 416 832 0
FLAG 800 832 0
FLAG 672 912 0
FLAG 1184 656 0
FLAG 192 448 0
FLAG 144 176 0
FLAG 240 176 0
FLAG 64 352 0
SYMBOL res 992 768 R0
SYMATTR InstName R1
SYMATTR Value 20K
SYMBOL res 1024 960 R270
WINDOW 0 32 56 VTop 2
WINDOW 3 0 56 VBottom 2
SYMATTR InstName R2
SYMATTR Value 20K
SYMBOL schottky 816 272 R0
SYMATTR InstName D1
SYMATTR Value 1N5818
SYMBOL ind 880 560 R270
WINDOW 0 32 56 VTop 2
WINDOW 3 5 56 VBottom 2
SYMATTR InstName L1
SYMATTR Value .56µ
SYMATTR SpiceLine Rser=1.6m
SYMBOL cap 272 624 R90
WINDOW 0 0 32 VBottom 2
WINDOW 3 32 32 VTop 2
WINDOW 39 53 32 VTop 2
SYMATTR InstName C1
SYMATTR Value 220p
SYMATTR SpiceLine Rser=28K Cpar=100p
SYMBOL VOLTAGE 48 64 R0
WINDOW 123 0 0 Left 2
WINDOW 39 0 0 Left 2
SYMATTR InstName V1
SYMATTR Value 14
SYMBOL cap 400 720 R90
WINDOW 0 0 32 VBottom 2
WINDOW 3 32 32 VTop 2
SYMATTR InstName C2
SYMATTR Value .001µ
SYMBOL cap 816 464 R0
WINDOW 0 28 17 Left 2
WINDOW 3 26 48 Left 2
SYMATTR InstName C3
SYMATTR Value .1µ
SYMBOL cap 928 48 M270
WINDOW 0 32 32 VTop 2
WINDOW 3 0 32 VBottom 2
SYMATTR InstName C4
SYMATTR Value 4.7µ
SYMBOL res 432 528 R90
WINDOW 0 0 56 VBottom 2
WINDOW 3 32 56 VTop 2
SYMATTR InstName R3
SYMATTR Value 115K
SYMBOL PowerProducts\\LTC3613 608 496 R0
SYMATTR InstName U1
SYMBOL res 320 272 R270
WINDOW 0 32 56 VTop 2
WINDOW 3 0 56 VBottom 2
SYMATTR InstName R4
SYMATTR Value 100K
SYMBOL cap 1168 560 R0
WINDOW 123 27 54 Left 2
WINDOW 3 36 32 Left 2
SYMATTR Value2 x2
SYMATTR Value 100µ
SYMATTR InstName C5
SYMATTR SpiceLine Rser=5m
SYMBOL res 304 352 R0
SYMATTR InstName R5
SYMATTR Value 52.3K
SYMBOL res 304 432 R90
WINDOW 0 0 56 VBottom 2
WINDOW 3 32 56 VTop 2
SYMATTR InstName R6
SYMATTR Value 10K
SYMBOL cap 224 80 R0
WINDOW 123 53 65 Left 2
WINDOW 3 28 61 Left 2
SYMATTR Value 82µ
SYMATTR InstName C6
SYMBOL cap 128 144 M180
WINDOW 0 24 56 Left 2
WINDOW 3 24 8 Left 2
SYMATTR InstName C7
SYMATTR Value 10µ
SYMBOL res 816 544 R0
SYMATTR InstName R7
SYMATTR Value 3.09K
SYMBOL cap 976 624 R90
WINDOW 0 0 32 VBottom 2
WINDOW 3 35 32 VTop 2
SYMATTR InstName C8
SYMATTR Value 0.1µ
SYMBOL voltage 176 352 R90
WINDOW 0 -32 56 VBottom 2
WINDOW 3 32 56 VTop 2
WINDOW 123 74 56 VTop 2
WINDOW 39 53 56 VTop 2
SYMATTR InstName V2
SYMATTR Value PULSE(0 3.3 0 1n 1n 1.43u 2.86u)
SYMBOL cap 1056 560 R0
WINDOW 3 39 32 Left 2
WINDOW 40 26 54 Left 2
SYMATTR Value 330µ
SYMATTR SpiceLine2 x2
SYMATTR InstName C9
SYMATTR SpiceLine Rser=8m
SYMBOL res 1280 544 R0
SYMATTR InstName Rload
SYMATTR Value .1
TEXT 1088 736 Left 2 !.tran .8m startup
TEXT -16 976 Left 2 ;Note:\n  If the simulation model is not found please update with the "Sync Release" command from the "Tools" menu.\n  It remains the customer's responsibility to verify proper and reliable operation in the actual application.\n  Component substitution and printed circuit board layout may significantly affect circuit performance or reliability\n  Contact your local sales representative for assistance. This circuit is distributed to customers only for use with LTC parts\n  Copyright © 2012 Linear Technology Inc. All rights reserved.
TEXT 592 24 Bottom 2 ;LTC3613- 24V, 15A Monolithic Step Down Regulator with Differential Output Sensing\nHigh Efficiency High Power Step-Down Converter\nInput: 4.5V to 24V     Output: 1.2V @ 12A
