Version 4
SHEET 1 1296 680
WIRE -112 112 -224 112
WIRE -32 112 -112 112
WIRE 32 112 -32 112
WIRE 336 112 320 112
WIRE 432 112 416 112
WIRE -224 128 -224 112
WIRE -112 128 -112 112
WIRE -32 208 -32 112
WIRE 32 208 -32 208
WIRE 352 208 320 208
WIRE 560 208 352 208
WIRE 608 208 560 208
WIRE 688 208 608 208
WIRE -224 224 -224 208
WIRE -112 224 -112 192
WIRE 608 224 608 208
WIRE 688 224 688 208
WIRE 32 304 16 304
WIRE 352 304 352 288
WIRE 352 304 320 304
WIRE 432 304 352 304
WIRE 528 304 512 304
WIRE 608 320 608 288
WIRE 688 320 688 304
WIRE 32 400 16 400
WIRE 400 400 320 400
WIRE 560 400 560 208
WIRE 560 400 480 400
FLAG -224 224 0
FLAG 16 400 0
FLAG 528 304 0
FLAG 608 320 0
FLAG 432 112 0
FLAG 688 320 0
FLAG -224 112 IN
FLAG 688 208 OUT
FLAG 16 304 0
FLAG -112 224 0
SYMBOL voltage -224 112 R0
SYMATTR InstName Vin
SYMATTR Value 1.5
SYMBOL res 496 384 R90
WINDOW 0 0 56 VBottom 2
WINDOW 3 32 56 VTop 2
SYMATTR InstName R1
SYMATTR Value 100K
SYMBOL res 336 192 R0
SYMATTR InstName R2
SYMATTR Value 8.06K
SYMBOL res 672 208 R0
SYMATTR InstName R3
SYMATTR Value 0.8
SYMBOL res 416 320 R270
WINDOW 0 32 56 VTop 2
WINDOW 3 0 56 VBottom 2
SYMATTR InstName R4
SYMATTR Value 4.02K
SYMBOL cap 592 224 R0
SYMATTR InstName C2
SYMATTR Value 10µ
SYMBOL LTC3026-1 176 256 R0
SYMATTR InstName U1
SYMBOL voltage 320 112 R270
WINDOW 0 32 56 VTop 2
WINDOW 3 -32 56 VBottom 2
SYMATTR InstName Vbias
SYMATTR Value 5
SYMBOL cap -128 128 R0
SYMATTR InstName C1
SYMATTR Value 4.7µ
TEXT 576 416 Left 2 !.tran 1m startup
TEXT 256 40 Bottom 2 ;LTC3026-1 - 1.5A Low Input Voltage VLDO Linear Regulator\nLow Input Voltage Linear Regulator\nInput: 1.14V to 5.5V     Output: 1.2V @ 1A
TEXT -392 448 Left 2 ;Notes:\n  If the simulation model is not found please update with the "Sync Release" command from the "Tools" menu.\n  It remains the customer's responsibility to verify proper and reliable operation in the actual application.\n  Component substitution and printed circuit board layout may significantly affect circuit performance or reliability.\n  Contact your local sales representative for assistance. This circuit is distributed to customers only for use with LTC parts.\n  Copyright © 2015 Linear Technology Inc. All rights reserved.
