Version 4
SHEET 1 1856 1364
WIRE 672 0 560 0
WIRE 912 0 672 0
WIRE 1088 0 912 0
WIRE 1200 0 1088 0
WIRE 1280 0 1200 0
WIRE 1392 0 1280 0
WIRE 560 16 560 0
WIRE 672 16 672 0
WIRE 912 16 912 0
WIRE 1280 16 1280 0
WIRE 1392 16 1392 0
WIRE 1088 96 1088 0
WIRE 1280 112 1280 80
WIRE 1392 112 1392 96
WIRE 464 144 448 144
WIRE 560 144 560 96
WIRE 560 144 528 144
WIRE 672 144 672 96
WIRE 704 144 672 144
WIRE 816 144 784 144
WIRE 912 176 912 96
WIRE 912 176 784 176
WIRE 1040 176 912 176
WIRE 1088 208 1088 192
WIRE 1088 208 208 208
WIRE 560 224 560 144
WIRE 672 224 672 144
WIRE 784 224 784 176
WIRE 208 288 208 208
WIRE 448 288 208 288
WIRE 928 288 896 288
WIRE 976 288 928 288
WIRE 1088 288 1088 208
WIRE 1088 288 1040 288
WIRE 1200 304 1200 0
WIRE 448 384 432 384
WIRE 1152 384 896 384
WIRE 928 400 928 288
WIRE 208 480 208 288
WIRE 224 480 208 480
WIRE 336 480 304 480
WIRE 448 480 336 480
WIRE 928 480 928 464
WIRE 928 480 896 480
WIRE 1200 480 1200 400
WIRE 1200 480 928 480
WIRE 1248 480 1200 480
WIRE 1296 480 1248 480
WIRE 1424 480 1376 480
WIRE 1488 480 1424 480
WIRE 1648 480 1488 480
WIRE 336 496 336 480
WIRE 1488 496 1488 480
WIRE 1648 496 1648 480
WIRE 1248 512 1248 480
WIRE 448 576 432 576
WIRE 928 576 896 576
WIRE 1088 576 1088 288
WIRE 1088 576 928 576
WIRE 336 592 336 576
WIRE 1088 592 1088 576
WIRE 1248 592 1248 576
WIRE 1488 592 1488 560
WIRE 1648 592 1648 576
WIRE 208 672 208 480
WIRE 448 672 208 672
WIRE 928 672 928 576
WIRE 928 672 896 672
WIRE 1088 672 1088 656
WIRE 320 768 256 768
WIRE 448 768 384 768
WIRE 1424 768 1424 480
WIRE 1424 768 896 768
WIRE 1424 784 1424 768
WIRE 272 864 256 864
WIRE 368 864 352 864
WIRE 448 864 432 864
WIRE 1200 864 1200 480
WIRE 1200 864 896 864
WIRE 1200 880 1200 864
WIRE 1424 880 1424 864
WIRE 1424 880 1392 880
WIRE 1424 896 1424 880
WIRE 368 960 256 960
WIRE 448 960 368 960
WIRE 1152 960 896 960
WIRE 256 976 256 960
WIRE 368 976 368 960
WIRE 1424 992 1424 976
WIRE 368 1056 368 1040
WIRE 448 1056 368 1056
WIRE 1200 1056 1200 976
WIRE 1200 1056 896 1056
WIRE 256 1072 256 1040
WIRE 1200 1072 1200 1056
WIRE 560 1136 560 1120
WIRE 784 1136 784 1120
WIRE 256 1168 256 1152
WIRE 368 1168 368 1056
WIRE 368 1168 256 1168
WIRE 1392 1168 1392 880
WIRE 1392 1168 368 1168
FLAG 1200 1072 0
FLAG 1088 672 0
FLAG 1248 592 0
FLAG 784 1136 0
FLAG 560 1136 0
FLAG 1424 992 0
FLAG 1488 592 0
FLAG 1648 592 0
FLAG 256 768 0
FLAG 1392 112 0
FLAG 1648 480 OUT
FLAG 1392 0 IN
FLAG 432 576 0
FLAG 256 864 0
FLAG 1280 112 0
FLAG 448 144 0
FLAG 336 592 0
FLAG 816 144 0
SYMBOL res 544 0 R0
SYMATTR InstName R1
SYMATTR Value 110K
SYMBOL nmos 1040 96 R0
SYMATTR InstName Q1
SYMATTR Value BSH114
SYMBOL res 896 0 R0
SYMATTR InstName R2
SYMATTR Value 100K
SYMBOL schottky 1040 272 R90
WINDOW 0 0 32 VBottom 2
WINDOW 3 32 32 VTop 2
SYMATTR InstName D1
SYMATTR Value MBRS1100
SYMATTR Description Diode
SYMATTR Type diode
SYMBOL cap 912 400 R0
SYMATTR InstName C1
SYMATTR Value .1µ
SYMBOL nmos 1152 304 R0
SYMATTR InstName Q2
SYMATTR Value BSC100N06LS3
SYMBOL nmos 1152 880 R0
SYMATTR InstName Q3
SYMATTR Value BSC100N06LS3
SYMBOL cap 1072 592 R0
SYMATTR InstName C2
SYMATTR Value 1µ
SYMBOL ind 1280 496 R270
WINDOW 0 32 56 VTop 2
WINDOW 3 5 56 VBottom 2
SYMATTR InstName L1
SYMATTR Value 10µ
SYMBOL schottky 1232 576 M180
WINDOW 0 24 72 Left 2
WINDOW 3 24 0 Left 2
SYMATTR InstName D2
SYMATTR Value MBRS1100
SYMATTR Description Diode
SYMATTR Type diode
SYMBOL res 1408 768 R0
SYMATTR InstName R3
SYMATTR Value 10K
SYMBOL res 1408 880 R0
SYMATTR InstName R4
SYMATTR Value 1.91K
SYMBOL cap 1472 496 R0
WINDOW 39 24 77 Left 2
SYMATTR SpiceLine Rser=10m
SYMATTR Value 270µ
SYMATTR InstName C3
SYMBOL cap 352 976 R0
WINDOW 39 24 92 Left 2
WINDOW 40 23 114 Left 2
SYMATTR InstName C4
SYMATTR Value 5p
SYMBOL cap 384 752 R90
WINDOW 0 0 32 VBottom 2
WINDOW 3 32 32 VTop 2
SYMATTR InstName C5
SYMATTR Value 1000p
SYMBOL cap 432 848 R90
WINDOW 0 0 32 VBottom 2
WINDOW 3 32 32 VTop 2
WINDOW 39 58 32 VTop 2
SYMATTR InstName C6
SYMATTR Value .01µ
SYMBOL res 240 1056 R0
SYMATTR InstName R5
SYMATTR Value 200K
SYMBOL cap 240 976 R0
SYMATTR InstName C7
SYMATTR Value 47p
SYMBOL res 368 848 R90
WINDOW 0 0 56 VBottom 2
WINDOW 3 32 56 VTop 2
SYMATTR InstName R6
SYMATTR Value 10K
SYMBOL voltage 1392 0 R0
WINDOW 40 24 132 Left 2
WINDOW 123 0 0 Left 2
WINDOW 39 24 139 Left 2
SYMATTR InstName V1
SYMATTR Value 36
SYMBOL cap 1264 16 R0
SYMATTR InstName C8
SYMATTR Value 68µ
SYMBOL cap 528 128 R90
WINDOW 0 0 32 VBottom 2
WINDOW 3 32 32 VTop 2
SYMATTR InstName C9
SYMATTR Value 1000p
SYMBOL res 208 496 R270
WINDOW 0 32 56 VTop 2
WINDOW 3 0 56 VBottom 2
SYMATTR InstName R7
SYMATTR Value 78.7K
SYMBOL res 320 480 R0
SYMATTR InstName R8
SYMATTR Value 10K
SYMBOL res 656 0 R0
SYMATTR InstName R9
SYMATTR Value 200K
SYMBOL res 688 160 R270
WINDOW 0 32 56 VTop 2
WINDOW 3 0 56 VBottom 2
SYMATTR InstName R10
SYMATTR Value 14.3K
SYMBOL res 1632 480 R0
SYMATTR InstName Rload
SYMATTR Value .84
SYMBOL PowerProducts\\LTC3810-5 672 672 R0
SYMATTR InstName U2
TEXT 1416 1152 Left 2 !.tran 1m startup
TEXT 144 1184 Left 2 ;Note:\n  If the simulation model is not found please update with the "Sync Release" command from the "Tools" menu.\n  It remains the customer's responsibility to verify proper and reliable operation in the actual application.\n  Component substitution and printed circuit board layout may significantly affect circuit performance or reliability\n  Contact your local sales representative for assistance. This circuit is distributed to customers only for use with LTC parts\n  Copyright © 2012, 2017 Linear Technology Inc. All rights reserved.
TEXT 848 -24 Bottom 2 ;LTC3810-5 - 60V Current Mode Synchronous Switching Regulator Controller\nHigh Efficiency, High Voltage Buck Converter\nInput: 12V to 60V     Output: 5V @ 6A, Fsw = 250kHz
