Version 4
SHEET 1 1496 720
WIRE 192 -16 160 -16
WIRE 288 -16 272 -16
WIRE 160 32 160 -16
WIRE 288 32 288 -16
WIRE -96 96 -192 96
WIRE -16 96 -96 96
WIRE 96 96 -16 96
WIRE 432 96 352 96
WIRE 576 96 432 96
WIRE 688 96 576 96
WIRE 784 96 688 96
WIRE -192 112 -192 96
WIRE -96 112 -96 96
WIRE 432 112 432 96
WIRE 576 112 576 96
WIRE 688 112 688 96
WIRE 784 112 784 96
WIRE -16 192 -16 96
WIRE 0 192 -16 192
WIRE 96 192 80 192
WIRE -192 208 -192 192
WIRE -96 208 -96 176
WIRE 432 208 432 192
WIRE 688 208 688 176
WIRE 784 208 784 192
WIRE 0 288 -16 288
WIRE 96 288 80 288
WIRE 432 288 432 272
WIRE 432 288 352 288
WIRE 576 288 576 192
WIRE 576 288 432 288
WIRE 592 288 576 288
WIRE 688 288 672 288
WIRE 0 384 -16 384
WIRE 96 384 80 384
WIRE 384 384 352 384
WIRE 400 384 384 384
WIRE 496 384 480 384
WIRE 576 384 576 288
WIRE 576 384 560 384
WIRE 384 480 384 384
WIRE 448 480 384 480
WIRE 576 480 576 384
WIRE 576 480 512 480
WIRE 160 496 160 448
WIRE 288 496 288 448
FLAG 160 496 0
FLAG 288 496 0
FLAG -192 208 0
FLAG -192 96 IN
FLAG 688 288 0
FLAG 784 96 OUT
FLAG 688 208 0
FLAG 784 208 0
FLAG -96 208 0
FLAG -16 384 0
FLAG -16 288 0
SYMBOL voltage -192 96 R0
WINDOW 123 0 0 Left 2
WINDOW 39 0 0 Left 2
WINDOW 3 18 97 Left 2
SYMATTR Value 3.3
SYMATTR InstName V1
SYMBOL ind 176 0 R270
WINDOW 0 32 56 VTop 2
WINDOW 3 5 56 VBottom 2
SYMATTR InstName L1
SYMATTR Value 2.2µ
SYMATTR SpiceLine Ipk=8 Rser=18m
SYMBOL res 560 96 R0
SYMATTR InstName R1
SYMATTR Value 825K
SYMBOL res 576 304 R270
WINDOW 0 32 56 VTop 2
WINDOW 3 0 56 VBottom 2
SYMATTR InstName R2
SYMATTR Value 182K
SYMBOL LTC3113 224 240 R0
SYMATTR InstName U1
SYMBOL res -16 400 R270
WINDOW 0 32 56 VTop 2
WINDOW 3 0 56 VBottom 2
SYMATTR InstName R3
SYMATTR Value 90.9K
SYMBOL cap 672 112 R0
SYMATTR InstName C2
SYMATTR Value 100µ
SYMATTR SpiceLine V=6.3V Rser=.01
SYMBOL cap -112 112 R0
SYMATTR InstName C3
SYMATTR Value 47µ
SYMATTR SpiceLine V=10V Rser=.005
SYMBOL res -16 208 R270
WINDOW 3 0 56 VBottom 2
WINDOW 0 32 56 VTop 2
SYMATTR Value 1Meg
SYMATTR InstName R4
SYMBOL res 416 96 R0
WINDOW 0 38 46 Left 2
WINDOW 3 36 73 Left 2
SYMATTR InstName R5
SYMATTR Value 6.49K
SYMBOL cap 416 208 R0
WINDOW 0 42 17 Left 2
WINDOW 3 39 46 Left 2
SYMATTR InstName C5
SYMATTR Value 47p
SYMBOL cap 448 496 R270
WINDOW 0 32 32 VTop 2
WINDOW 3 0 32 VBottom 2
SYMATTR InstName C6
SYMATTR Value 10p
SYMBOL cap 560 368 R90
WINDOW 0 0 32 VBottom 2
WINDOW 3 32 32 VTop 2
SYMATTR InstName C7
SYMATTR Value 680p
SYMBOL res 496 368 R90
WINDOW 0 0 56 VBottom 2
WINDOW 3 32 56 VTop 2
SYMATTR InstName R6
SYMATTR Value 49.9K
SYMBOL res -16 304 R270
WINDOW 0 32 56 VTop 2
WINDOW 3 0 56 VBottom 2
SYMATTR InstName R7
SYMATTR Value 1Meg
SYMBOL res 768 96 R0
SYMATTR InstName Rload
SYMATTR Value 1.1
TEXT 648 480 Left 2 !.tran 2.5m startup
TEXT 240 -72 Bottom 2 ;LTC3113 - 3A Low Noise Buck-Boost DC/DC Converter\nLow Noise Buck-Boost Regulator\nInput: 1.8V to 5.5V     Output: 3.3V @ 3A for Vin > Vout
TEXT -328 520 Left 2 ;Notes: \n  If the simulation model is not found please update with the "Sync Release" command from the "Tools" menu.\n  It remains the customer's responsibility to verify proper and reliable operation in the actual application.\n  Component substitution and printed circuit board layout may significantly affect circuit performance or reliability.\n  Contact your local sales representative for assistance. This circuit is distributed to customers only for use with LTC parts.\n  Copyright © 2015 Linear Technology Inc.  All rights reserved.
