Version 4
SHEET 1 1524 904
WIRE -592 -544 -688 -544
WIRE -496 -544 -592 -544
WIRE -416 -544 -496 -544
WIRE 160 -544 -416 -544
WIRE 1008 -544 160 -544
WIRE -688 -528 -688 -544
WIRE -592 -528 -592 -544
WIRE -496 -528 -496 -544
WIRE -48 -496 -224 -496
WIRE 256 -496 -48 -496
WIRE 560 -496 256 -496
WIRE 832 -496 560 -496
WIRE 864 -496 832 -496
WIRE 944 -496 928 -496
WIRE 256 -480 256 -496
WIRE -688 -432 -688 -448
WIRE -592 -432 -592 -464
WIRE -496 -432 -496 -464
WIRE -224 -432 -224 -496
WIRE 832 -432 832 -496
WIRE 256 -384 256 -400
WIRE 256 -384 144 -384
WIRE 672 -384 256 -384
WIRE 688 -384 672 -384
WIRE 768 -384 752 -384
WIRE -416 -352 -416 -544
WIRE 1008 -352 1008 -544
WIRE -48 -336 -48 -496
WIRE 64 -336 64 -384
WIRE 160 -336 160 -544
WIRE 256 -336 256 -384
WIRE 560 -336 560 -496
WIRE -160 -272 -368 -272
WIRE 960 -272 656 -272
WIRE -224 -176 -224 -368
WIRE -160 -176 -224 -176
WIRE 832 -176 832 -368
WIRE 832 -176 656 -176
WIRE -224 -160 -224 -176
WIRE 832 -160 832 -176
WIRE -624 -80 -640 -80
WIRE -528 -80 -544 -80
WIRE -512 -80 -528 -80
WIRE -416 -80 -416 -256
WIRE -416 -80 -432 -80
WIRE -224 -80 -224 -96
WIRE -224 -80 -416 -80
WIRE -160 -80 -224 -80
WIRE 832 -80 832 -96
WIRE 832 -80 656 -80
WIRE 1008 -80 1008 -256
WIRE 1008 -80 832 -80
WIRE 1024 -80 1008 -80
WIRE 1120 -80 1104 -80
WIRE 1136 -80 1120 -80
WIRE 1232 -80 1216 -80
WIRE 1280 -80 1232 -80
WIRE 1392 -80 1280 -80
WIRE -416 -64 -416 -80
WIRE 1008 -64 1008 -80
WIRE 1280 -64 1280 -80
WIRE 1392 -64 1392 -80
WIRE -160 16 -368 16
WIRE 960 16 656 16
WIRE 1280 32 1280 0
WIRE 1392 32 1392 16
WIRE -416 48 -416 32
WIRE 1008 48 1008 32
WIRE -528 112 -528 -80
WIRE -160 112 -528 112
WIRE 1120 112 1120 -80
WIRE 1120 112 656 112
WIRE -640 208 -640 -80
WIRE -272 208 -640 208
WIRE -160 208 -272 208
WIRE 1232 208 1232 -80
WIRE 1232 208 656 208
WIRE -272 304 -272 288
WIRE -160 304 -272 304
WIRE 736 304 656 304
WIRE 816 304 800 304
WIRE -272 320 -272 304
WIRE -160 400 -176 400
WIRE 672 400 672 -384
WIRE 672 400 656 400
WIRE -272 416 -272 400
WIRE -240 496 -256 496
WIRE -160 496 -176 496
WIRE 208 576 208 560
WIRE 304 576 304 560
WIRE 112 608 112 560
WIRE 400 608 400 560
WIRE 400 608 112 608
WIRE 416 608 400 608
WIRE 512 608 496 608
WIRE -640 656 -640 208
WIRE 1232 656 1232 208
WIRE 1232 656 -640 656
FLAG 208 576 0
FLAG 304 576 0
FLAG 512 608 0
FLAG -688 -432 0
FLAG 944 -496 0
FLAG -416 48 0
FLAG 1280 32 0
FLAG 1392 32 0
FLAG -256 496 0
FLAG -272 416 0
FLAG -688 -544 IN
FLAG 1392 -80 OUT
FLAG 1008 48 0
FLAG 816 304 0
FLAG -176 400 0
FLAG -592 -432 0
FLAG -496 -432 0
FLAG 768 -384 0
SYMBOL res 400 624 R270
WINDOW 0 32 56 VTop 2
WINDOW 3 0 56 VBottom 2
SYMATTR InstName R1
SYMATTR Value 18.7K
SYMBOL voltage -688 -544 R0
SYMATTR InstName V1
SYMATTR Value 10
SYMBOL cap 928 -480 M270
WINDOW 0 32 32 VTop 2
WINDOW 3 0 32 VBottom 2
SYMATTR InstName C1
SYMATTR Value 4.7µ
SYMBOL res 240 -496 R0
SYMATTR InstName R2
SYMATTR Value 2.2
SYMBOL nmos -368 -352 M0
WINDOW 0 38 -9 Right 2
WINDOW 3 31 105 Right 2
SYMATTR InstName Q1
SYMATTR Value BSC093N04LS
SYMBOL nmos -368 -64 M0
WINDOW 0 -8 10 Right 2
WINDOW 3 18 106 Right 2
SYMATTR InstName Q2
SYMATTR Value BSC035N04LS
SYMBOL schottky -240 -432 R0
SYMATTR InstName D1
SYMATTR Value MBRS140
SYMATTR Description Diode
SYMATTR Type diode
SYMBOL cap -240 -160 R0
SYMATTR InstName C2
SYMATTR Value .1µ
SYMBOL ind -416 -64 M270
WINDOW 0 32 56 VTop 2
WINDOW 3 5 56 VBottom 2
SYMATTR InstName L1
SYMATTR Value .3µ
SYMATTR SpiceLine Rser=.8m
SYMBOL cap -176 480 R90
WINDOW 0 0 32 VBottom 2
WINDOW 3 32 32 VTop 2
SYMATTR InstName C3
SYMATTR Value .001µ
SYMBOL res -288 192 R0
SYMATTR InstName R3
SYMATTR Value 45.3K
SYMBOL res -288 304 R0
SYMATTR InstName R4
SYMATTR Value 10K
SYMBOL nmos 960 -352 R0
WINDOW 0 72 29 Left 2
WINDOW 3 60 80 Left 2
SYMATTR InstName Q3
SYMATTR Value BSC093N04LS
SYMBOL nmos 960 -64 R0
WINDOW 0 4 7 Right 2
WINDOW 3 28 101 Right 2
SYMATTR InstName Q4
SYMATTR Value BSC035N04LS
SYMBOL schottky 816 -432 R0
SYMATTR InstName D2
SYMATTR Value MBRS140
SYMATTR Description Diode
SYMATTR Type diode
SYMBOL cap 816 -160 R0
SYMATTR InstName C4
SYMATTR Value .1µ
SYMBOL ind 1008 -64 R270
WINDOW 0 32 56 VTop 2
WINDOW 3 5 56 VBottom 2
SYMATTR InstName L2
SYMATTR Value .3µ
SYMATTR SpiceLine Rser=.8m
SYMBOL cap 736 288 M90
WINDOW 0 0 32 VBottom 2
WINDOW 3 32 32 VTop 2
WINDOW 39 53 32 VTop 2
SYMATTR InstName C5
SYMATTR Value 150p
SYMATTR SpiceLine Rser=33.2K
SYMBOL PowerProducts\\LTC3839 256 112 R0
SYMATTR InstName U1
SYMBOL cap 688 -368 R270
WINDOW 0 32 32 VTop 2
WINDOW 3 0 32 VBottom 2
SYMATTR InstName C6
SYMATTR Value 1µ
SYMBOL res -528 -96 R90
WINDOW 0 0 56 VBottom 2
WINDOW 3 32 56 VTop 2
SYMATTR InstName R5
SYMATTR Value 4m
SYMBOL res 1120 -64 R270
WINDOW 0 32 56 VTop 2
WINDOW 3 0 56 VBottom 2
SYMATTR InstName R6
SYMATTR Value 4m
SYMBOL cap -608 -528 R0
SYMATTR InstName C7
SYMATTR Value 180µ
SYMBOL cap -512 -528 R0
WINDOW 3 36 36 Left 2
WINDOW 39 25 62 Left 2
SYMATTR Value 22µ
SYMATTR SpiceLine x4
SYMATTR InstName C8
SYMBOL res 160 -400 R90
WINDOW 0 0 56 VBottom 2
WINDOW 3 32 56 VTop 2
SYMATTR InstName R7
SYMATTR Value 100K
SYMBOL cap 1264 -64 R0
WINDOW 3 38 35 Left 2
WINDOW 40 26 57 Left 2
SYMATTR Value 100µ
SYMATTR SpiceLine2 x6
SYMATTR InstName C9
SYMATTR SpiceLine Rser=0.012
SYMBOL res 1376 -80 R0
WINDOW 3 33 89 Left 2
SYMATTR Value .132
SYMATTR InstName Rload
TEXT 984 688 Left 2 !.tran 750u startup
TEXT 248 -552 Bottom 2 ;LTC3839 - Fast, Accurate, 2-Phase, Single-Output Step-Down DC/DC Controller with Differential Output Sensing\n2MHz, 2-Phase, Step-Down Converter with Rsense Current Sensing\nInput: 4.5V to 14V    Output: 3.3V @ 25A
TEXT -344 672 Left 2 ;Note:\n  If the simulation model is not found please update with the "Sync Release" command from the "Tools" menu.\n  It remains the customer's responsibility to verify proper and reliable operation in the actual application.\n  Component substitution and printed circuit board layout may significantly affect circuit performance or reliability.\n  Contact your local sales representative for assistance. This circuit is distributed to customers only for use with LTC parts.\n  Copyright © 2012 Linear Technology Inc. All rights reserved.
