Version 4
SHEET 1 2664 864
WIRE 736 -416 144 -416
WIRE 736 -384 736 -416
WIRE 608 -368 608 -384
WIRE 1104 -336 928 -336
WIRE 1216 -336 1104 -336
WIRE 1344 -336 1216 -336
WIRE 1472 -336 1344 -336
WIRE 1104 -320 1104 -336
WIRE 1216 -320 1216 -336
WIRE 1344 -320 1344 -336
WIRE 1472 -320 1472 -336
WIRE 48 -272 32 -272
WIRE 144 -272 144 -416
WIRE 144 -272 112 -272
WIRE 176 -272 144 -272
WIRE 608 -272 608 -288
WIRE 608 -272 544 -272
WIRE 928 -256 928 -336
WIRE 1104 -224 1104 -256
WIRE 1216 -224 1216 -256
WIRE 1344 -224 1344 -240
WIRE 1344 -224 1296 -224
WIRE 1472 -224 1472 -240
WIRE 1344 -208 1344 -224
WIRE 176 -176 -160 -176
WIRE 880 -176 544 -176
WIRE -160 -160 -160 -176
WIRE 1344 -112 1344 -128
WIRE 736 -80 736 -320
WIRE 736 -80 544 -80
WIRE -160 -64 -160 -80
WIRE 736 -64 736 -80
WIRE 176 16 160 16
WIRE 736 16 736 0
WIRE 736 16 544 16
WIRE 928 16 928 -160
WIRE 928 16 736 16
WIRE 1120 16 928 16
WIRE 1152 16 1120 16
WIRE 1264 16 1232 16
WIRE 1360 16 1264 16
WIRE 1488 16 1360 16
WIRE 928 32 928 16
WIRE 1360 32 1360 16
WIRE 1488 32 1488 16
WIRE 176 112 160 112
WIRE 880 112 544 112
WIRE 1360 128 1360 96
WIRE 1488 128 1488 112
WIRE 928 144 928 128
WIRE 96 208 80 208
WIRE 176 208 160 208
WIRE 608 208 608 -192
WIRE 608 208 544 208
WIRE 1264 208 1264 16
WIRE 1264 208 608 208
WIRE 608 224 608 208
WIRE -48 304 -96 304
WIRE 64 304 32 304
WIRE 176 304 64 304
WIRE 608 304 608 288
WIRE 608 304 544 304
WIRE 704 304 608 304
WIRE 1120 304 1120 16
WIRE 1120 304 784 304
WIRE -96 320 -96 304
WIRE 64 320 64 304
WIRE -96 400 -96 384
WIRE 64 400 64 384
WIRE 176 400 160 400
WIRE 1296 400 1296 -224
WIRE 1296 400 544 400
FLAG 32 -272 0
FLAG 1488 128 0
FLAG 1216 -224 0
FLAG 1472 -224 0
FLAG 1472 -336 OUT
FLAG 1488 16 IN
FLAG 1344 -112 0
FLAG 80 208 0
FLAG 64 400 0
FLAG 928 144 0
FLAG 160 112 0
FLAG 160 400 0
FLAG 160 16 0
FLAG 1104 -224 0
FLAG 608 -384 0
FLAG -160 -64 0
FLAG -96 400 0
FLAG 1360 128 0
SYMBOL cap 112 -288 R90
WINDOW 3 32 32 VTop 2
WINDOW 0 0 32 VBottom 2
SYMATTR Value 4.7µ
SYMATTR InstName C1
SYMATTR SpiceLine Rser=0.005
SYMBOL voltage 1488 16 R0
WINDOW 123 24 159 Left 2
WINDOW 39 24 138 Left 2
WINDOW -1 24 117 Left 2
SYMATTR InstName V1
SYMATTR Value PULSE(0 3 .1m 0 5m)
SYMBOL cap 1200 -320 R0
SYMATTR InstName C2
SYMATTR Value 470µ
SYMATTR SpiceLine Rser=0.010
SYMBOL res 1328 -224 R0
SYMATTR InstName R1
SYMATTR Value 12.1K
SYMBOL res 1328 -336 R0
SYMATTR InstName R2
SYMATTR Value 38K
SYMBOL cap 160 192 R90
WINDOW 0 0 32 VBottom 2
WINDOW 3 32 32 VTop 2
SYMATTR InstName C3
SYMATTR Value .001µ
SYMBOL ind 1248 32 M270
WINDOW 0 32 56 VTop 2
WINDOW 3 5 56 VBottom 2
SYMATTR InstName L1
SYMATTR Value 0.68µ
SYMATTR SpiceLine Rser=1.72m
SYMBOL nmos 880 -256 R0
WINDOW 0 70 22 Left 2
WINDOW 3 70 68 Left 2
SYMATTR InstName Q1
SYMATTR Value BSC0901NSI
SYMBOL cap 720 -64 R0
SYMATTR InstName C4
SYMATTR Value .1µ
SYMBOL schottky 720 -384 R0
SYMATTR Value PMEG2005EB
SYMATTR InstName D1
SYMATTR Description Diode
SYMATTR Type diode
SYMBOL LTC3786 352 64 R0
SYMATTR InstName U1
SYMBOL cap 1088 -320 R0
WINDOW 3 34 30 Left 2
WINDOW 40 21 56 Left 2
SYMATTR Value 100µ
SYMATTR SpiceLine2 x3
SYMATTR InstName C5
SYMATTR SpiceLine Rser=0.003
SYMBOL cap 48 320 R0
SYMATTR InstName C6
SYMATTR Value 100p
SYMBOL cap -112 320 R0
SYMATTR InstName C7
SYMATTR Value 15n
SYMBOL res 48 288 R90
WINDOW 0 0 56 VBottom 2
WINDOW 3 32 56 VTop 2
SYMATTR InstName R3
SYMATTR Value 6.2k
SYMBOL res 592 -384 R0
SYMATTR InstName R4
SYMATTR Value 12.1K
SYMBOL res 592 -288 R0
WINDOW 0 44 53 Left 2
WINDOW 3 46 81 Left 2
SYMATTR InstName R5
SYMATTR Value 13.3K
SYMBOL voltage -160 -176 R0
WINDOW 123 24 138 Left 2
WINDOW 39 24 117 Left 2
SYMATTR InstName V2
SYMATTR Value PULSE(0 5 0.1m 100u)
SYMBOL nmos 880 32 R0
WINDOW 0 67 34 Left 2
WINDOW 3 66 71 Left 2
SYMATTR InstName Q2
SYMATTR Value BSC0901NSI
SYMBOL res 800 288 R90
WINDOW 0 0 56 VBottom 2
WINDOW 3 32 56 VTop 2
SYMATTR InstName R6
SYMATTR Value 1.5K
SYMBOL cap 592 288 M180
WINDOW 0 24 56 Left 2
WINDOW 3 24 8 Left 2
SYMATTR InstName C8
SYMATTR Value 0.1µ
SYMBOL cap 1344 32 R0
SYMATTR InstName C9
SYMATTR Value 100µ
SYMBOL res 1456 -336 R0
SYMATTR InstName Rload
SYMATTR Value 1
TEXT 1072 432 Left 2 !.tran 2m startup
TEXT 736 -440 Bottom 2 ;LTC3786 - Low Iq Synchronous Boost Controller\nHigh Efficiency Li-Ion Battery to USB Boost Converter\nInput: 2.7V to 5V      Output: 5V @ 5A, Fswitch = 350kHz
TEXT 56 504 Left 2 ;Notes:\n  RUN/SS capacitor has been reduced to speed up simulation time. Typical values should be 0.1µF.\n  If the simulation model is not found please update with the "Sync Release" command from the "Tools" menu.\n  It remains the customer's responsibility to verify proper and reliable operation in the actual application.\n  Component substitution and printed circuit board layout may significantly affect circuit performance or reliability.\n  Contact your local sales representative for assistance. This circuit is distributed to customers only for use with LTC parts.\n  Copyright © 2014 Linear Technology Inc. All rights reserved.
