Version 4
SHEET 1 1240 1212
WIRE 208 -80 -144 -80
WIRE 496 -80 208 -80
WIRE 560 -80 496 -80
WIRE 640 -80 560 -80
WIRE -208 -64 -608 -64
WIRE -112 -64 -208 -64
WIRE 80 -64 -112 -64
WIRE 640 -64 640 -80
WIRE -848 -48 -928 -48
WIRE -768 -48 -848 -48
WIRE -688 -48 -768 -48
WIRE -608 -48 -608 -64
WIRE -112 -48 -112 -64
WIRE 496 -48 496 -80
WIRE -928 -32 -928 -48
WIRE -848 -32 -848 -48
WIRE -768 -32 -768 -48
WIRE -496 0 -544 0
WIRE -400 0 -432 0
WIRE -352 0 -400 0
WIRE -256 0 -288 0
WIRE -208 0 -208 -64
WIRE -208 0 -256 0
WIRE 80 0 80 -64
WIRE 208 0 208 -80
WIRE 336 0 336 -16
WIRE -208 16 -208 0
WIRE 560 16 560 -80
WIRE 640 16 640 0
WIRE -688 48 -688 -48
WIRE -608 48 -608 32
WIRE -112 48 -112 32
WIRE -32 48 -112 48
WIRE 496 48 496 32
WIRE 496 48 464 48
WIRE -928 64 -928 48
WIRE -848 64 -848 32
WIRE -768 64 -768 32
WIRE -400 64 -400 0
WIRE -208 96 -208 80
WIRE 736 112 704 112
WIRE 880 112 736 112
WIRE 928 112 880 112
WIRE 1024 112 928 112
WIRE 1120 112 1024 112
WIRE -528 128 -640 128
WIRE -256 128 -256 0
WIRE -256 128 -272 128
WIRE -144 128 -144 -80
WIRE -32 128 -144 128
WIRE 560 128 560 80
WIRE 560 128 464 128
WIRE 704 128 704 112
WIRE 928 128 928 112
WIRE 1024 128 1024 112
WIRE 1120 128 1120 112
WIRE 736 144 736 112
WIRE -688 176 -688 144
WIRE -688 176 -880 176
WIRE -688 208 -688 176
WIRE -688 208 -832 208
WIRE -544 208 -544 0
WIRE -544 208 -688 208
WIRE -528 208 -544 208
WIRE -32 208 -272 208
WIRE 656 208 464 208
WIRE -832 224 -832 208
WIRE 736 224 736 208
WIRE 736 224 704 224
WIRE 928 224 928 192
WIRE 1024 224 1024 192
WIRE 1120 224 1120 208
WIRE -528 288 -640 288
WIRE -256 288 -272 288
WIRE -144 288 -144 192
WIRE -32 288 -144 288
WIRE 560 288 560 192
WIRE 560 288 464 288
WIRE 704 288 704 224
WIRE 704 288 560 288
WIRE 736 288 704 288
WIRE -144 304 -144 288
WIRE -832 320 -832 288
WIRE -688 320 -688 304
WIRE -688 320 -832 320
WIRE 880 352 880 112
WIRE -400 368 -400 352
WIRE -256 368 -256 288
WIRE -32 368 -256 368
WIRE 656 368 464 368
WIRE -112 448 -128 448
WIRE -32 448 -48 448
WIRE 880 448 880 432
WIRE 880 448 464 448
WIRE 880 464 880 448
WIRE -304 528 -352 528
WIRE -192 528 -224 528
WIRE -32 528 -192 528
WIRE 480 528 464 528
WIRE -352 544 -352 528
WIRE -192 544 -192 528
WIRE 880 560 880 544
WIRE -32 608 -128 608
WIRE 480 608 464 608
WIRE 576 608 544 608
WIRE -352 624 -352 608
WIRE -192 624 -192 608
WIRE -128 624 -128 608
WIRE 576 624 576 608
WIRE -32 688 -48 688
WIRE -128 704 -128 688
WIRE 576 720 576 704
WIRE 352 768 352 752
WIRE 80 800 80 752
WIRE 128 800 80 800
WIRE 208 800 208 752
WIRE 208 800 192 800
WIRE 80 816 80 800
WIRE 208 816 208 800
WIRE 80 912 80 896
WIRE 112 912 80 912
WIRE 208 912 208 896
WIRE 208 912 192 912
WIRE 224 912 208 912
WIRE -688 976 -688 320
WIRE 80 976 80 912
WIRE 80 976 -688 976
WIRE 704 976 704 384
WIRE 704 976 80 976
WIRE -880 1024 -880 176
WIRE 240 1024 -880 1024
WIRE 736 1024 736 288
WIRE 736 1024 320 1024
FLAG 640 16 0
FLAG -928 64 0
FLAG 928 224 0
FLAG 880 560 0
FLAG 224 912 0
FLAG 352 768 0
FLAG 1120 224 0
FLAG 480 528 0
FLAG 576 720 0
FLAG -608 48 0
FLAG -400 368 0
FLAG -208 96 0
FLAG -928 -48 IN
FLAG 1120 112 OUT
FLAG -128 448 0
FLAG -144 304 0
FLAG -48 688 0
FLAG 1024 224 0
FLAG -768 64 0
FLAG -848 64 0
FLAG -352 624 0
FLAG -192 624 0
FLAG -128 704 0
SYMBOL PowerProducts\\LTC3780 208 368 R0
SYMATTR InstName U1
SYMBOL nmos -640 48 M0
WINDOW 3 37 104 Right 0
WINDOW 0 28 -6 Right 0
SYMATTR Value Si4486EY
SYMATTR InstName Q1
SYMBOL schottky 544 16 R0
SYMATTR InstName D1
SYMATTR Value BAT54
SYMATTR Description Diode
SYMATTR Type diode
SYMBOL cap 624 -64 R0
SYMATTR InstName C1
SYMATTR Value 4.7µ
SYMBOL nmos 656 128 R0
WINDOW 3 39 102 Right 0
WINDOW 0 -3 28 Right 0
SYMATTR Value Si4408DY
SYMATTR InstName Q2
SYMBOL nmos 656 288 R0
WINDOW 3 36 101 Right 0
WINDOW 0 -6 30 Right 0
SYMATTR Value Si4408DY
SYMATTR InstName Q3
SYMBOL voltage -928 -48 R0
WINDOW 0 23 19 Left 0
WINDOW 3 27 95 Left 0
SYMATTR InstName V1
SYMATTR Value 24
SYMBOL cap 912 128 R0
SYMATTR InstName C2
SYMATTR Value 22µ
SYMATTR SpiceLine Rser=0.003
SYMBOL res 864 448 R0
SYMATTR InstName R1
SYMATTR Value 8.06K
SYMBOL res 864 336 R0
SYMATTR InstName R2
SYMATTR Value 113K
SYMBOL res 96 928 R270
WINDOW 0 32 56 VTop 0
WINDOW 3 0 56 VBottom 0
SYMATTR InstName R3
SYMATTR Value 15m
SYMBOL cap -160 128 R0
WINDOW 0 33 18 Left 0
WINDOW 3 29 58 Left 0
SYMATTR InstName C3
SYMATTR Value .1µ
SYMBOL cap 544 128 R0
WINDOW 0 33 18 Left 0
WINDOW 3 29 58 Left 0
SYMATTR InstName C4
SYMATTR Value .1µ
SYMBOL nmos -640 208 M0
WINDOW 3 25 107 Right 0
WINDOW 0 -3 25 Right 0
SYMATTR Value Si4486EY
SYMATTR InstName Q4
SYMBOL schottky -848 288 M180
WINDOW 0 35 57 Left 0
WINDOW 3 24 0 Left 0
SYMATTR InstName D2
SYMATTR Value MBRS1100
SYMATTR Description Diode
SYMATTR Type diode
SYMBOL schottky 720 208 M180
WINDOW 0 30 64 Left 0
WINDOW 3 23 1 Left 0
SYMATTR InstName D3
SYMATTR Value MBRS340
SYMATTR Description Diode
SYMATTR Type diode
SYMBOL ind 224 1040 R270
WINDOW 0 32 56 VTop 0
WINDOW 3 5 56 VBottom 0
SYMATTR InstName L1
SYMATTR Value 6.8µ
SYMATTR SpiceLine Rser=0.005
SYMBOL cap 544 592 R90
WINDOW 0 0 32 VBottom 0
WINDOW 3 32 32 VTop 0
SYMATTR InstName C7
SYMATTR Value .01µ
SYMBOL res 560 608 R0
SYMATTR InstName R5
SYMATTR Value 10K
SYMBOL voltage -608 -64 R0
SYMATTR Value 8
SYMATTR InstName V2
SYMBOL PowerProducts\\LTC4444 -400 208 M0
SYMATTR InstName U2
SYMBOL diode -288 -16 R90
WINDOW 3 32 32 VTop 0
WINDOW 0 0 32 VBottom 0
SYMATTR Value MMSD4148
SYMATTR InstName D4
SYMBOL cap -432 -16 R90
WINDOW 3 32 32 VTop 0
WINDOW 0 0 32 VBottom 0
SYMATTR Value 0.22µ
SYMATTR InstName C8
SYMBOL cap -224 16 R0
SYMATTR InstName C9
SYMATTR Value 1µ
SYMBOL cap -48 432 R90
WINDOW 0 0 32 VBottom 0
WINDOW 3 32 32 VTop 0
SYMATTR InstName C10
SYMATTR Value 100p
SYMBOL res 64 800 R0
SYMATTR InstName R6
SYMATTR Value 100
SYMBOL res 192 800 R0
SYMATTR InstName R7
SYMATTR Value 100
SYMBOL cap 192 784 R90
WINDOW 0 0 32 VBottom 0
WINDOW 3 32 32 VTop 0
SYMATTR InstName C11
SYMATTR Value 68p
SYMBOL res -128 -64 R0
SYMATTR Value 51K
SYMATTR InstName R8
SYMBOL cap -144 624 R0
SYMATTR Value 100p
SYMATTR InstName C12
SYMBOL res 480 -64 R0
SYMATTR InstName R9
SYMATTR Value 10K
SYMBOL polcap 1008 128 R0
SYMATTR InstName C13
SYMATTR Value 330µ
SYMATTR SpiceLine Rser=0.005
SYMBOL cap -864 -32 R0
SYMATTR InstName C14
SYMATTR Value 2.2µ
SYMBOL polcap -784 -32 R0
SYMATTR InstName C15
SYMATTR Value 100µ
SYMBOL res 1104 112 R0
SYMATTR InstName R10
SYMATTR Value 4
SYMBOL cap -208 608 M180
WINDOW 0 24 64 Left 0
WINDOW 3 28 16 Left 0
SYMATTR InstName C16
SYMATTR Value 100p
SYMBOL cap -368 608 M180
WINDOW 0 24 64 Left 0
WINDOW 3 24 8 Left 0
SYMATTR InstName C17
SYMATTR Value .0047µ
SYMBOL res -208 512 R90
WINDOW 0 0 56 VBottom 0
WINDOW 3 32 56 VTop 0
SYMATTR InstName R11
SYMATTR Value 220K
TEXT 784 784 Left 0 !.tran 750u startup
TEXT -592 1056 Left 0 ;Note:\n  If the simulation model is not found please update with the "Sync Release" command from the "Tools" menu.\n  It remains the customer's responsibility to verify proper and reliable operation in the actual application.\n  Component substitution and printed circuit board layout may significantly affect circuit performance or reliability\n  Contact your local sales representative for assistance. This circuit is distributed to customers only for use with LTC parts\n  Copyright © 2008 Linear Technology Inc. All rights reserved.
TEXT 16 -96 Bottom 0 ;LTC3780/LTC4444 - High Efficiency Synchronous Buck-Boost DC/DC Converter\nInput: 8V-48V    Output: 12V @ 3A
