Version 4
SHEET 1 2496 976
WIRE 224 -176 224 -192
WIRE -320 -128 -416 -128
WIRE -240 -128 -320 -128
WIRE -160 -128 -240 -128
WIRE 112 -128 -160 -128
WIRE -416 -112 -416 -128
WIRE -320 -112 -320 -128
WIRE -240 -112 -240 -128
WIRE 224 -96 224 -112
WIRE 224 -96 -128 -96
WIRE 624 -80 336 -80
WIRE 112 -48 112 -128
WIRE 224 -48 224 -96
WIRE 336 -48 336 -80
WIRE -416 -16 -416 -32
WIRE -320 -16 -320 -48
WIRE -240 -16 -240 -48
WIRE -128 16 -128 -96
WIRE -96 16 -128 16
WIRE 16 16 -16 16
WIRE 624 16 624 -80
WIRE 624 16 432 16
WIRE -160 112 -160 -128
WIRE 16 112 -160 112
WIRE 464 112 432 112
WIRE 464 128 464 112
WIRE -128 208 -128 16
WIRE -96 208 -128 208
WIRE 16 208 -16 208
WIRE 464 208 464 192
WIRE 464 208 432 208
WIRE 512 208 464 208
WIRE 624 208 624 16
WIRE 624 208 592 208
WIRE 720 208 624 208
WIRE 832 208 720 208
WIRE 992 208 912 208
WIRE 624 224 624 208
WIRE 720 224 720 208
WIRE 992 224 992 208
WIRE -80 304 -96 304
WIRE 16 304 0 304
WIRE 464 304 432 304
WIRE 624 320 624 288
WIRE 720 320 720 288
WIRE 832 320 784 320
WIRE 992 320 992 304
WIRE 992 320 912 320
WIRE 784 368 784 320
WIRE -128 400 -128 208
WIRE 16 400 -128 400
WIRE 448 400 432 400
WIRE 480 400 448 400
WIRE 560 400 544 400
WIRE 96 480 96 464
WIRE 352 480 352 464
WIRE -128 512 -128 400
WIRE 176 512 176 464
WIRE 176 512 -128 512
WIRE 272 544 272 464
WIRE 320 544 272 544
WIRE 448 544 448 400
WIRE 448 544 400 544
WIRE 464 544 448 544
WIRE 560 544 544 544
WIRE 272 560 272 544
WIRE 272 640 272 624
FLAG 96 480 0
FLAG 560 544 0
FLAG 272 640 0
FLAG -96 304 0
FLAG -416 -16 0
FLAG 224 -192 0
FLAG 352 480 0
FLAG 464 304 0
FLAG 624 320 0
FLAG -416 -128 IN
FLAG 720 320 0
FLAG -320 -16 0
FLAG -240 -16 0
FLAG 560 400 0
FLAG 784 368 0
FLAG 720 208 OUT
SYMBOL LTC3649 224 208 R0
SYMATTR InstName U1
SYMBOL cap 256 560 R0
SYMATTR Value 2.2n
SYMATTR InstName C1
SYMBOL res 16 288 R90
WINDOW 0 0 56 VBottom 2
WINDOW 3 32 56 VTop 2
SYMATTR InstName R2
SYMATTR Value 200K
SYMBOL VOLTAGE -416 -128 R0
WINDOW 123 0 0 Left 2
WINDOW 39 0 0 Left 2
SYMATTR InstName V1
SYMATTR Value 12
SYMBOL cap 208 -176 R0
WINDOW 0 35 18 Left 2
WINDOW 3 38 54 Left 2
SYMATTR InstName C2
SYMATTR Value 2.2µ
SYMATTR SpiceLine Rser=10m
SYMBOL ind 496 224 R270
WINDOW 0 32 56 VTop 2
WINDOW 3 5 56 VBottom 2
SYMATTR InstName L1
SYMATTR Value 5.6µ
SYMATTR SpiceLine Rser=10m
SYMBOL cap 448 128 R0
SYMATTR InstName C4
SYMATTR Value .1µ
SYMBOL cap 608 224 R0
WINDOW 123 27 58 Left 2
WINDOW 3 36 34 Left 2
SYMATTR Value2 x2
SYMATTR Value 22µ
SYMATTR InstName C5
SYMATTR SpiceLine Rser=20m
SYMBOL polcap 704 224 R0
SYMATTR InstName C6
SYMATTR Value 150µ
SYMATTR SpiceLine Rser=20m
SYMBOL polcap -336 -112 R0
SYMATTR InstName C7
SYMATTR Value 10µ
SYMATTR SpiceLine Rser=20m
SYMBOL cap -256 -112 R0
WINDOW 123 27 58 Left 2
WINDOW 3 36 34 Left 2
SYMATTR Value2 x2
SYMATTR Value 10µ
SYMATTR InstName C8
SYMATTR SpiceLine Rser=20m
SYMBOL res 0 192 R90
WINDOW 0 0 56 VBottom 2
WINDOW 3 32 56 VTop 2
SYMATTR InstName R5
SYMATTR Value 100K
SYMBOL res -112 32 R270
WINDOW 0 32 56 VTop 2
WINDOW 3 0 56 VBottom 2
SYMATTR InstName R6
SYMATTR Value 10K
SYMBOL res 304 560 R270
WINDOW 0 32 56 VTop 2
WINDOW 3 0 56 VBottom 2
SYMATTR InstName R1
SYMATTR Value 59K
SYMBOL res 448 560 R270
WINDOW 0 32 56 VTop 2
WINDOW 3 0 56 VBottom 2
SYMATTR InstName R3
SYMATTR Value 8.06K
SYMBOL cap 480 416 R270
WINDOW 0 32 32 VTop 2
WINDOW 3 0 32 VBottom 2
SYMATTR InstName C3
SYMATTR Value 470p
SYMBOL current 992 224 R0
WINDOW 123 24 122 Left 2
WINDOW 39 24 101 Left 2
SYMATTR Value PWL(0 0 1m 0 3m 2)
SYMATTR InstName Iload
SYMBOL res 928 192 R90
WINDOW 0 0 56 VBottom 2
WINDOW 3 32 56 VTop 2
SYMATTR InstName RC1
SYMATTR Value 0.1
SYMBOL res 928 304 R90
WINDOW 0 0 56 VBottom 2
WINDOW 3 32 56 VTop 2
SYMATTR InstName RC2
SYMATTR Value 0.1
TEXT 752 552 Left 2 !.tran 3.5m startup
TEXT -384 656 Left 2 ;Notes:\n  If the simulation model is not found please update with the "Sync Release" command from the "Tools" menu.\n  It remains the customer's responsibility to verify proper and reliable operation in the actual application.\n  Component substitution and printed circuit board layout may significantly affect circuit performance or reliability.\n  Contact your local sales representative for assistance. This circuit is distributed to customers only for use with LTC parts.\n  Copyright © 2016 Linear Technology Inc. All rights reserved.
TEXT 872 136 Bottom 3 ;Cable
TEXT 232 -288 Center 2 ;LTC3649 - 60V, 4A Synchronous Step-Down Regulator with Rail-to-Rail Programmable Output\nHigh Voltage Monolothic Synchronous Buck Regulator with Cable Drop Compensation\nInput: 4V to 60V     Output: 5V @ 4A, Fsw = 500kHz
RECTANGLE Normal 928 384 816 144 1
