Version 4
SHEET 1 1712 680
WIRE 160 -464 128 -464
WIRE 256 -464 240 -464
WIRE 128 -416 128 -464
WIRE 256 -416 256 -464
WIRE -96 -368 -192 -368
WIRE 16 -368 -96 -368
WIRE 32 -368 16 -368
WIRE 432 -368 352 -368
WIRE 544 -368 432 -368
WIRE 640 -368 544 -368
WIRE 832 -368 640 -368
WIRE -192 -352 -192 -368
WIRE 432 -352 432 -368
WIRE 544 -352 544 -368
WIRE 640 -352 640 -368
WIRE 832 -352 832 -368
WIRE -96 -336 -96 -368
WIRE 16 -256 16 -368
WIRE 32 -256 16 -256
WIRE 432 -256 432 -272
WIRE 432 -256 352 -256
WIRE 544 -256 544 -288
WIRE 640 -256 640 -288
WIRE 832 -256 832 -272
WIRE -192 -240 -192 -272
WIRE -96 -240 -96 -272
WIRE 432 -240 432 -256
WIRE -64 -144 -80 -144
WIRE 32 -144 16 -144
WIRE 368 -144 352 -144
WIRE 432 -144 432 -160
FLAG -192 -240 0
FLAG -80 -144 0
FLAG 432 -144 0
FLAG 368 -144 0
FLAG 544 -256 0
FLAG -192 -368 IN
FLAG 832 -368 OUT
FLAG -96 -240 0
FLAG 640 -256 0
FLAG 832 -256 0
SYMBOL PowerProducts\\LTC3125 192 -256 R0
SYMATTR InstName U1
SYMBOL voltage -192 -368 R0
SYMATTR InstName V1
SYMATTR Value 3.3
SYMBOL res 32 -160 R90
WINDOW 0 0 56 VBottom 0
WINDOW 3 32 56 VTop 0
SYMATTR InstName R1
SYMATTR Value 44.2K
SYMBOL ind 144 -448 R270
WINDOW 0 32 56 VTop 0
WINDOW 3 5 56 VBottom 0
SYMATTR InstName L1
SYMATTR Value 1.5µ
SYMATTR SpiceLine Rser=0.14
SYMBOL res 416 -368 R0
WINDOW 3 23 87 Left 0
SYMATTR Value 1Meg
SYMATTR InstName R2
SYMBOL res 416 -256 R0
WINDOW 3 27 78 Left 0
SYMATTR Value 432K
SYMATTR InstName R3
SYMBOL cap 528 -352 R0
WINDOW 123 24 92 Left 0
SYMATTR InstName C1
SYMATTR Value 10µ
SYMATTR SpiceLine Rser=28m
SYMBOL cap -112 -336 R0
WINDOW 40 31 77 Left 0
WINDOW 3 32 50 Left 0
SYMATTR SpiceLine2 x2
SYMATTR Value 10µ
SYMATTR InstName C2
SYMATTR SpiceLine Rser=5m
SYMBOL polcap 624 -352 R0
WINDOW 40 26 61 Left 0
WINDOW 3 37 36 Left 0
SYMATTR SpiceLine2 x2
SYMATTR Value {2200µ/20}
SYMATTR InstName C3
SYMATTR SpiceLine V=6.3 Rser=55m
SYMBOL res 816 -368 R0
SYMATTR InstName R4
SYMATTR Value 50
TEXT 752 -144 Left 0 !.tran 3m
TEXT 320 -512 Bottom 0 ;LTC3125 - 1.2A Synchronous Step-Up DC/DC Converter with Input Current Limit\nInput: 3.0V - 3.6V     Output: 4V @ 2A (pulsed)
TEXT 840 -232 Top 0 ;4V @ 2A Pulse Load
TEXT -296 -88 Left 0 ;Note:\n  C3s' values have been reduced 20 fold to shorten simulation time.  They are intended to be super caps that supports\n  a 2A pulsed load.\n \n  If the simulation model is not found please update with the "Sync Release" command from the "Tools" menu.\n  It remains the customer's responsibility to verify proper and reliable operation in the actual application.\n  Component substitution and printed circuit board layout may significantly affect circuit performance or reliability.\n  Contact your local sales representative for assistance. This circuit is distributed to customers only for use with LTC parts.\n  Copyright © 2011 Linear Technology Inc. All rights reserved.
