Version 4
SHEET 1 2140 1056
WIRE -368 -384 -464 -384
WIRE -272 -384 -368 -384
WIRE -160 -384 -272 -384
WIRE 560 -384 -160 -384
WIRE -464 -368 -464 -384
WIRE -368 -368 -368 -384
WIRE -272 -368 -272 -384
WIRE -160 -368 -160 -384
WIRE 864 -352 304 -352
WIRE 208 -320 -80 -320
WIRE 416 -320 208 -320
WIRE 416 -288 416 -320
WIRE -464 -272 -464 -288
WIRE -368 -272 -368 -304
WIRE -272 -272 -272 -304
WIRE -160 -272 -160 -288
WIRE 112 -272 -160 -272
WIRE -160 -256 -160 -272
WIRE 112 -256 112 -272
WIRE 208 -256 208 -320
WIRE 304 -256 304 -352
WIRE 32 -192 16 -192
WIRE 416 -192 416 -224
WIRE 416 -192 384 -192
WIRE -160 -176 -160 -192
WIRE 416 -176 416 -192
WIRE 560 -176 560 -384
WIRE -160 -96 -176 -96
WIRE -80 -96 -80 -320
WIRE -80 -96 -96 -96
WIRE -64 -96 -80 -96
WIRE 32 -96 16 -96
WIRE 512 -96 384 -96
WIRE 32 0 16 0
WIRE 416 0 416 -112
WIRE 416 0 384 0
WIRE 560 0 560 -80
WIRE 560 0 416 0
WIRE 752 0 560 0
WIRE 768 0 752 0
WIRE 864 0 864 -352
WIRE 864 0 848 0
WIRE 912 0 864 0
WIRE 1024 0 912 0
WIRE 1168 0 1024 0
WIRE 560 16 560 0
WIRE 912 16 912 0
WIRE 1024 16 1024 0
WIRE 1168 16 1168 0
WIRE 1424 32 1216 32
WIRE 1520 32 1504 32
WIRE 1232 80 1216 80
WIRE 32 96 16 96
WIRE 512 96 384 96
WIRE 912 112 912 80
WIRE 1024 112 1024 80
WIRE 1168 112 1168 96
WIRE 560 128 560 112
WIRE -64 192 -80 192
WIRE 32 192 16 192
WIRE 400 192 384 192
WIRE -64 288 -80 288
WIRE 32 288 0 288
WIRE 432 288 384 288
WIRE 864 288 864 0
WIRE 864 288 432 288
WIRE 432 304 432 288
WIRE -160 384 -192 384
WIRE 32 384 -96 384
WIRE 432 384 432 368
WIRE 432 384 384 384
WIRE 544 384 432 384
WIRE 752 384 752 0
WIRE 752 384 624 384
WIRE 32 480 16 480
WIRE 400 480 384 480
WIRE 32 576 16 576
WIRE 400 576 384 576
WIRE 864 624 864 288
WIRE 32 672 16 672
WIRE 400 672 384 672
WIRE 144 752 144 736
WIRE 272 752 272 736
WIRE 864 752 864 704
WIRE 864 752 272 752
WIRE 896 752 864 752
WIRE 1008 752 976 752
FLAG 144 752 0
FLAG -176 -96 0
FLAG -464 -272 0
FLAG -80 192 0
FLAG -192 384 0
FLAG -80 288 0
FLAG 16 672 0
FLAG 560 128 0
FLAG 1024 112 0
FLAG 400 576 0
FLAG 1008 752 0
FLAG 1168 0 OUT
FLAG -464 -384 IN
FLAG 912 112 0
FLAG 1232 80 0
FLAG 16 0 0
FLAG 400 480 0
FLAG 400 192 0
FLAG 16 96 0
FLAG -368 -272 0
FLAG -272 -272 0
FLAG -160 -176 0
FLAG 1168 112 0
FLAG 1520 32 0
SYMBOL PowerProducts\\LTC3866 208 240 R0
SYMATTR InstName U1
SYMBOL voltage -464 -384 R0
SYMATTR InstName V1
SYMATTR Value 12
SYMBOL cap -160 -80 R270
WINDOW 0 32 32 VTop 2
WINDOW 3 0 32 VBottom 2
SYMATTR InstName C1
SYMATTR Value 4.7µ
SYMBOL res 32 176 R90
WINDOW 0 0 56 VBottom 2
WINDOW 3 32 56 VTop 2
SYMATTR InstName R1
SYMATTR Value 20K
SYMBOL cap -96 400 M270
WINDOW 0 32 32 VTop 2
WINDOW 3 0 32 VBottom 2
WINDOW 39 -21 32 VBottom 2
SYMATTR InstName C2
SYMATTR Value 1000p
SYMATTR SpiceLine Rser=28.7K Cpar=100p
SYMBOL cap 0 304 M270
WINDOW 0 32 32 VTop 2
WINDOW 3 0 32 VBottom 2
SYMATTR InstName C3
SYMATTR Value .001µ
SYMBOL schottky 400 -288 R0
SYMATTR InstName D1
SYMATTR Value CMDSH2-3
SYMATTR Description Diode
SYMATTR Type diode
SYMBOL cap 400 -176 R0
SYMATTR InstName C4
SYMATTR Value .1µ
SYMBOL nmos 512 -176 R0
SYMATTR InstName Q1
SYMATTR Value BSC024NE2LS
SYMBOL nmos 512 16 R0
SYMATTR InstName Q2
SYMATTR Value BSC010NE2LS
SYMBOL ind 752 16 R270
WINDOW 0 32 56 VTop 2
WINDOW 3 5 56 VBottom 2
SYMATTR InstName L1
SYMATTR Value 1µ
SYMATTR SpiceLine Rser=1.3m
SYMBOL res 640 368 R90
WINDOW 0 0 56 VBottom 2
WINDOW 3 32 56 VTop 2
SYMATTR InstName R2
SYMATTR Value 3.48K
SYMBOL cap 416 304 R0
SYMATTR InstName C5
SYMATTR Value .22µ
SYMBOL res 848 608 R0
SYMATTR InstName R3
SYMATTR Value 147K
SYMBOL res 880 768 R270
WINDOW 0 32 56 VTop 2
WINDOW 3 0 56 VBottom 2
SYMATTR InstName R4
SYMATTR Value 20K
SYMBOL res -80 -80 R270
WINDOW 0 32 56 VTop 2
WINDOW 3 0 56 VBottom 2
SYMATTR InstName R5
SYMATTR Value 120K
SYMBOL cap -384 -368 R0
WINDOW 3 39 33 Left 2
WINDOW 39 25 58 Left 2
SYMATTR Value 10µ
SYMATTR SpiceLine x2
SYMATTR InstName C6
SYMBOL cap -288 -368 R0
WINDOW 3 39 33 Left 2
WINDOW 39 23 57 Left 2
SYMATTR Value 180µ
SYMATTR SpiceLine x2
SYMATTR InstName C7
SYMBOL cap 896 16 R0
WINDOW 3 37 33 Left 2
WINDOW 40 24 59 Left 2
SYMATTR Value 100µ
SYMATTR SpiceLine2 x2
SYMATTR InstName C8
SYMATTR SpiceLine Rser=0.002
SYMBOL cap 1008 16 R0
WINDOW 3 38 32 Left 2
WINDOW 40 24 57 Left 2
SYMATTR Value 330µ
SYMATTR SpiceLine2 x2
SYMATTR InstName C9
SYMATTR SpiceLine Rser=0.009
SYMBOL res -176 -384 R0
SYMATTR InstName R6
SYMATTR Value 2.2
SYMBOL cap -176 -256 R0
SYMATTR InstName C10
SYMATTR Value 1µ
SYMBOL sw 1168 112 R180
WINDOW 0 -19 100 Right 2
WINDOW 3 -21 8 Right 2
SYMATTR InstName S1
SYMBOL voltage 1408 32 R270
WINDOW 0 32 56 VTop 2
WINDOW 3 -32 56 VBottom 2
SYMATTR InstName V2
SYMATTR Value pulse(0 1 .6m 10u 10u .15m .3m)
TEXT 1016 704 Left 2 !.tran 1m startup
TEXT 456 -392 Bottom 2 ;LTC3866 - Current Mode Synchronous Controller for Sub Milliohm DCR Sensing\nHigh Efficiency 12V Input, 5V/25A Step-Down Converter\nInput: 12V     Output: 5V @ 25A, Fsw = 250kHz
TEXT -240 784 Left 2 ;Note:\n  Small value are used for TRACK/SS capacitors to reduce simulation time. Typical value will vary from 10nF to 100nF.\n  More output capacitors may be needed to meet load step and output voltage requirements.\n  If the simulation model is not found please update with the "Sync Release" command from the "Tools" menu.\n  It remains the customer's responsibility to verify proper and reliable operation in the actual application.\n  Component substitution and printed circuit board layout may significantly affect circuit performance or reliability\n  Contact your local sales representative for assistance. This circuit is distributed to customers only for use with LTC parts\n  Copyright © 2012 Linear Technology Inc. All rights reserved.
TEXT 1000 200 Left 2 !.model SW SW(Ron=.333 Roff=500 Vt=.5 Vh=-.4)
