Version 4
SHEET 1 1572 884
WIRE 592 -384 48 -384
WIRE 608 -368 144 -368
WIRE -96 -352 -592 -352
WIRE -48 -352 -96 -352
WIRE 352 -352 -48 -352
WIRE 1040 -352 352 -352
WIRE -592 -336 -592 -352
WIRE -48 -336 -48 -352
WIRE 352 -336 352 -352
WIRE 592 -272 592 -384
WIRE 592 -272 544 -272
WIRE 608 -272 608 -368
WIRE 1072 -272 784 -272
WIRE 1200 -272 1072 -272
WIRE 1328 -272 1200 -272
WIRE 1472 -272 1328 -272
WIRE -48 -256 -48 -272
WIRE 784 -256 784 -272
WIRE 1328 -256 1328 -272
WIRE 1472 -256 1472 -272
WIRE -592 -240 -592 -256
WIRE 1072 -240 1072 -272
WIRE 1200 -240 1200 -272
WIRE -96 -208 -96 -352
WIRE 144 -176 144 -368
WIRE 144 -176 128 -176
WIRE 176 -176 144 -176
WIRE 736 -176 544 -176
WIRE 1472 -160 1472 -176
WIRE 1072 -144 1072 -176
WIRE 1200 -144 1200 -176
WIRE 1328 -144 1328 -176
WIRE 1328 -144 1280 -144
WIRE 1328 -128 1328 -144
WIRE -96 -96 -96 -128
WIRE 48 -96 48 -384
WIRE 48 -96 -96 -96
WIRE -96 -80 -96 -96
WIRE 608 -80 608 -208
WIRE 608 -80 544 -80
WIRE 608 -64 608 -80
WIRE 1328 -32 1328 -48
WIRE 608 16 608 0
WIRE 608 16 544 16
WIRE 784 16 784 -160
WIRE 784 16 608 16
WIRE 800 16 784 16
WIRE 912 16 880 16
WIRE 944 16 912 16
WIRE 1040 16 1040 -352
WIRE 1040 16 1024 16
WIRE -96 32 -96 0
WIRE 784 32 784 16
WIRE 736 112 544 112
WIRE 784 144 784 128
WIRE 80 208 64 208
WIRE 176 208 160 208
WIRE 608 208 544 208
WIRE 704 208 608 208
WIRE 1040 208 1040 16
WIRE 1040 208 784 208
WIRE 608 224 608 208
WIRE 608 304 608 288
WIRE 608 304 544 304
WIRE 912 304 912 16
WIRE 912 304 608 304
WIRE 96 400 64 400
WIRE 176 400 160 400
WIRE 1280 400 1280 -144
WIRE 1280 400 544 400
WIRE -16 496 -64 496
WIRE 96 496 64 496
WIRE 176 496 96 496
WIRE 560 496 544 496
WIRE -64 512 -64 496
WIRE 96 512 96 496
WIRE -64 592 -64 576
WIRE 96 592 96 576
FLAG 80 -176 0
FLAG -592 -240 0
FLAG 1072 -144 0
FLAG 1472 -160 0
FLAG 1472 -272 OUT
FLAG -592 -352 IN
FLAG 1328 -32 0
FLAG -64 592 0
FLAG 784 144 0
FLAG 64 400 0
FLAG 560 496 0
FLAG -48 -256 0
FLAG 1200 -144 0
FLAG 64 208 0
FLAG -96 32 0
FLAG 96 592 0
SYMBOL cap 144 -192 R90
WINDOW 3 32 32 VTop 2
WINDOW 0 0 32 VBottom 2
SYMATTR Value 4.7µ
SYMATTR InstName C1
SYMBOL voltage -592 -352 R0
WINDOW 123 24 126 Left 2
WINDOW 39 24 111 Left 2
SYMATTR Value PWL(0 12 2m 12 2.1m 6 2.5m 6 3m 12)
SYMATTR InstName V1
SYMBOL cap 1056 -240 R0
WINDOW 123 25 80 Left 2
SYMATTR Value2 x6
SYMATTR InstName C3
SYMATTR Value 4.7µ
SYMATTR SpiceLine Rser=5m
SYMBOL res 1312 -144 R0
SYMATTR InstName R4
SYMATTR Value 12.1K
SYMBOL res 1312 -272 R0
SYMATTR InstName R5
SYMATTR Value 475K
SYMBOL res 1040 32 M270
WINDOW 0 32 56 VTop 2
WINDOW 3 0 56 VBottom 2
SYMATTR InstName R6
SYMATTR Value 6m
SYMBOL ind 896 32 M270
WINDOW 0 32 56 VTop 2
WINDOW 3 5 56 VBottom 2
SYMATTR InstName L1
SYMATTR Value 10µ
SYMATTR SpiceLine Rser=2m
SYMBOL nmos 736 -256 R0
WINDOW 0 56 21 Left 2
WINDOW 3 58 64 Left 2
SYMATTR InstName Q3
SYMATTR Value BSC028N06LS3
SYMBOL nmos 736 32 R0
WINDOW 0 53 32 Left 2
WINDOW 3 27 99 Right 2
SYMATTR InstName Q4
SYMATTR Value BSC028N06LS3
SYMBOL cap 592 -64 R0
SYMATTR InstName C6
SYMATTR Value .1µ
SYMBOL schottky 592 -272 R0
SYMATTR Value MBRS1100
SYMATTR InstName D2
SYMATTR Description Diode
SYMATTR Type diode
SYMBOL res 1456 -272 R0
SYMATTR InstName Rload
SYMATTR Value 48
SYMBOL LTC3769 352 112 R0
SYMATTR InstName U1
SYMBOL cap 160 384 R90
WINDOW 0 0 32 VBottom 2
WINDOW 3 32 32 VTop 2
SYMATTR InstName C2
SYMATTR Value .01µ
SYMBOL cap -64 -336 R0
WINDOW 123 27 65 Left 2
WINDOW 3 42 34 Left 2
SYMATTR Value2 x2
SYMATTR Value 4.7µ
SYMATTR InstName C4
SYMATTR SpiceLine V=100V Rser=2m
SYMBOL polcap 1184 -240 R0
WINDOW 123 26 82 Left 2
SYMATTR Value2 x2
SYMATTR InstName C7
SYMATTR Value 33µ
SYMATTR SpiceLine Rser=25m
SYMBOL res 176 192 R90
WINDOW 0 0 56 VBottom 2
WINDOW 3 32 56 VTop 2
SYMATTR InstName R1
SYMATTR Value 30.1K
SYMBOL res 80 480 R90
WINDOW 0 0 56 VBottom 2
WINDOW 3 32 56 VTop 2
SYMATTR InstName R2
SYMATTR Value 27.4K
SYMBOL cap -80 512 R0
SYMATTR InstName C5
SYMATTR Value 15n
SYMBOL cap 80 512 R0
SYMATTR InstName C8
SYMATTR Value 100p
SYMBOL res -112 -224 R0
SYMATTR InstName R3
SYMATTR Value 150K
SYMBOL res -112 -96 R0
SYMATTR InstName R7
SYMATTR Value 38.3K
SYMBOL res 800 192 R90
WINDOW 0 0 56 VBottom 2
WINDOW 3 32 56 VTop 2
SYMATTR InstName R8
SYMATTR Value 10
SYMBOL cap 592 224 R0
SYMATTR InstName C9
SYMATTR Value 1n
TEXT 1232 560 Left 2 !.tran 3.5m
TEXT -224 616 Left 2 ;Notes:\n  Smaller values are used for SS capacitors to reduce simulation time. See datasheet for typical values.\n  For the full components part numbers and layout details refer to demo circuit DC2173.\n  If the simulation model is not found please update with the "Sync Release" command from the "Tools" menu.\n  It remains the customer's responsibility to verify proper and reliable operation in the actual application.\n  Component substitution and printed circuit board layout may significantly affect circuit performance or reliability\n  Contact your local sales representative for assistance. This circuit is distributed to customers only for use with LTC parts\n  Copyright © 2014 Linear Technology Inc. All rights reserved.
TEXT 416 -400 Bottom 2 ;LTC3769 - 60V Low IQ Synchronous Boost Controller\nHigh Voltage 60V Synchronous Boost Controller\nInput: 6V to 55V     Output: 48V @ 1A
