Version 4
SHEET 1 1244 928
WIRE 496 -176 224 -176
WIRE 608 -176 576 -176
WIRE -224 -144 -336 -144
WIRE -144 -144 -224 -144
WIRE -64 -144 -144 -144
WIRE 448 -144 -64 -144
WIRE -336 -128 -336 -144
WIRE -224 -128 -224 -144
WIRE -144 -128 -144 -144
WIRE 720 -128 16 -128
WIRE 224 -112 224 -176
WIRE -64 -48 -64 -144
WIRE 16 -48 16 -128
WIRE 32 -48 16 -48
WIRE 448 -48 448 -144
WIRE 448 -48 416 -48
WIRE -336 -32 -336 -48
WIRE -224 -32 -224 -64
WIRE -144 -32 -144 -64
WIRE -64 48 -64 32
WIRE 32 48 -64 48
WIRE 448 48 416 48
WIRE 480 48 448 48
WIRE 688 48 560 48
WIRE 720 48 720 -128
WIRE 720 48 688 48
WIRE 816 48 720 48
WIRE 912 48 816 48
WIRE 1024 48 912 48
WIRE 448 64 448 48
WIRE 720 64 720 48
WIRE 816 64 816 48
WIRE 912 64 912 48
WIRE 1024 64 1024 48
WIRE -48 144 -64 144
WIRE 32 144 16 144
WIRE 448 144 448 128
WIRE 448 144 416 144
WIRE 448 160 448 144
WIRE 720 160 720 128
WIRE 816 160 816 128
WIRE 912 160 912 128
WIRE 1024 160 1024 144
WIRE 688 224 688 48
WIRE -160 240 -176 240
WIRE -64 240 -80 240
WIRE 32 240 -64 240
WIRE 448 240 448 224
WIRE 448 240 416 240
WIRE 608 240 608 -176
WIRE 608 240 448 240
WIRE -64 256 -64 240
WIRE 448 288 448 240
WIRE 464 288 448 288
WIRE 544 288 528 288
WIRE 32 336 -64 336
WIRE 688 336 688 304
WIRE 688 336 416 336
WIRE 688 352 688 336
WIRE 480 432 416 432
WIRE 512 432 480 432
WIRE 608 432 592 432
WIRE 480 448 480 432
WIRE 608 448 608 432
WIRE 688 448 688 432
WIRE 144 512 144 496
WIRE 304 512 304 496
WIRE 480 528 480 512
WIRE 608 528 608 512
WIRE -64 544 -64 336
WIRE 448 544 448 288
WIRE 448 544 -64 544
FLAG -64 144 0
FLAG 304 512 0
FLAG 144 512 0
FLAG -336 -144 IN
FLAG 688 448 0
FLAG 720 160 0
FLAG 1024 160 0
FLAG 1024 48 OUT
FLAG 544 288 0
FLAG -336 -32 0
FLAG -176 240 0
FLAG 816 160 0
FLAG -144 -32 0
FLAG 480 528 0
FLAG 608 528 0
FLAG -224 -32 0
FLAG 912 160 0
SYMBOL cap 16 128 R90
WINDOW 0 0 32 VBottom 0
WINDOW 3 32 32 VTop 0
SYMATTR InstName C1
SYMATTR Value .001µ
SYMBOL cap 464 448 R0
WINDOW 3 23 54 Left 0
WINDOW 39 24 85 Left 0
SYMATTR Value 100p
SYMATTR InstName C2
SYMBOL voltage -336 -144 R0
WINDOW 3 25 99 Left 0
SYMATTR Value 12
SYMATTR InstName V1
SYMBOL ind 464 64 R270
WINDOW 0 32 56 VTop 0
WINDOW 3 2 79 VBottom 0
SYMATTR InstName L1
SYMATTR Value 0.47µ
SYMBOL cap 432 64 R0
WINDOW 3 25 52 Left 0
SYMATTR Value .22µ
SYMATTR InstName C3
SYMBOL schottky 432 224 M180
WINDOW 0 39 47 Left 0
WINDOW 3 24 8 Left 0
SYMATTR InstName D1
SYMATTR Value CMDSH2-3
SYMATTR Description Diode
SYMATTR Type diode
SYMBOL res 672 336 R0
SYMATTR InstName R1
SYMATTR Value 60.4K
SYMBOL res 672 208 R0
SYMATTR InstName R2
SYMATTR Value 60.4K
SYMBOL cap 704 64 R0
SYMATTR InstName C4
SYMATTR Value 100µ
SYMATTR SpiceLine Rser=10m
SYMBOL res 1008 48 R0
SYMATTR InstName Rload
SYMATTR Value .1
SYMBOL res -80 -64 R0
SYMATTR InstName R3
SYMATTR Value 137K
SYMBOL cap 464 304 R270
WINDOW 0 32 32 VTop 0
WINDOW 3 0 32 VBottom 0
SYMATTR InstName C5
SYMATTR Value 4.7µ
SYMBOL res -80 352 M180
WINDOW 0 36 76 Left 0
WINDOW 3 36 40 Left 0
SYMATTR InstName R4
SYMATTR Value 39.2K
SYMBOL res -64 224 R90
WINDOW 0 0 56 VBottom 0
WINDOW 3 32 56 VTop 0
SYMATTR InstName R5
SYMATTR Value 11K
SYMBOL cap 592 448 R0
WINDOW 3 23 52 Left 0
SYMATTR Value 1500p
SYMATTR InstName C6
SYMBOL res 496 448 R270
WINDOW 0 32 56 VTop 0
WINDOW 3 0 56 VBottom 0
SYMATTR InstName R6
SYMATTR Value 4.75K
SYMBOL cap 800 64 R0
SYMATTR InstName C7
SYMATTR Value 100µ
SYMBOL cap -160 -128 R0
SYMATTR InstName C8
SYMATTR Value 10µ
SYMBOL res 592 -192 R90
WINDOW 0 0 56 VBottom 0
WINDOW 3 32 56 VTop 0
SYMATTR InstName R7
SYMATTR Value 100K
SYMBOL PowerProducts\\LTC3610 224 192 R0
SYMATTR InstName U1
SYMBOL cap -240 -128 R0
SYMATTR InstName C9
SYMATTR Value 10µ
SYMBOL cap 896 64 R0
SYMATTR InstName C10
SYMATTR Value 100µ
TEXT 832 496 Left 0 !.tran 2.2m startup
TEXT 264 -208 Bottom 0 ;LTC3610 - 24V, 12A Monolithic Synchronous Step-Down DC/DC Converter\nInput: 12V              Output: 1.2V @ 12A
TEXT -208 536 Left 0 ;Note:\n  If the simulation model is not found please update with the "Sync Release" command from the "Tools" menu.\n  It remains the customer's responsibility to verify proper and reliable operation in the actual application.\n  Component substitution and printed circuit board layout may significantly affect circuit performance or reliability\n  Contact your local sales representative for assistance. This circuit is distributed to customers only for use with LTC parts\n  Copyright © 2011 Linear Technology Inc. All rights reserved.
