Version 4
SHEET 1 3304 2452
WIRE 2064 1280 1440 1280
WIRE 1632 1312 1504 1312
WIRE 1696 1312 1632 1312
WIRE 1872 1312 1696 1312
WIRE 1504 1328 1504 1312
WIRE 1632 1328 1632 1312
WIRE 1872 1328 1872 1312
WIRE 2064 1376 2064 1280
WIRE 2064 1376 2016 1376
WIRE 2144 1376 2064 1376
WIRE 2064 1392 2064 1376
WIRE 1504 1424 1504 1408
WIRE 1632 1424 1632 1392
WIRE 1696 1488 1696 1312
WIRE 1728 1488 1696 1488
WIRE 2064 1488 2064 1456
WIRE 2064 1488 2016 1488
WIRE 2064 1504 2064 1488
WIRE 1632 1600 1616 1600
WIRE 1728 1600 1712 1600
WIRE 2064 1600 2064 1568
WIRE 2064 1600 2016 1600
WIRE 2144 1600 2064 1600
WIRE 2272 1600 2224 1600
WIRE 2368 1600 2272 1600
WIRE 2512 1600 2368 1600
WIRE 2640 1600 2512 1600
WIRE 2272 1616 2272 1600
WIRE 2368 1616 2368 1600
WIRE 2512 1616 2512 1600
WIRE 2640 1616 2640 1600
WIRE 1632 1712 1616 1712
WIRE 1728 1712 1696 1712
WIRE 2272 1712 2272 1680
WIRE 2272 1712 2016 1712
WIRE 2368 1712 2368 1696
WIRE 2368 1712 2272 1712
WIRE 2512 1712 2512 1680
WIRE 2640 1712 2640 1696
WIRE 2368 1728 2368 1712
WIRE 1440 1824 1440 1280
WIRE 1728 1824 1440 1824
WIRE 2048 1824 2016 1824
WIRE 2144 1824 2128 1824
WIRE 2224 1824 2208 1824
WIRE 2368 1824 2368 1808
WIRE 1824 1888 1824 1872
WIRE 1920 1888 1920 1872
FLAG 1920 1888 0
FLAG 1824 1888 0
FLAG 1504 1424 0
FLAG 1616 1600 0
FLAG 2640 1712 0
FLAG 2368 1824 0
FLAG 2512 1712 0
FLAG 2640 1600 OUT
FLAG 1632 1424 0
FLAG 2224 1824 0
FLAG 1504 1312 IN
FLAG 2208 1376 0
FLAG 1616 1712 0
SYMBOL ind 2128 1616 R270
WINDOW 0 32 56 VTop 0
WINDOW 3 5 56 VBottom 0
SYMATTR InstName L1
SYMATTR Value 2.2µ
SYMBOL RES 2352 1600 R0
WINDOW 3 34 76 Left 0
SYMATTR Value 47.5K
SYMATTR InstName R1
SYMBOL VOLTAGE 1504 1312 R0
WINDOW 3 27 94 Left 0
WINDOW 123 0 0 Left 0
WINDOW 39 24 44 Left 0
SYMATTR Value 10
SYMATTR InstName V1
SYMBOL res 2352 1712 R0
WINDOW 0 39 38 Left 0
SYMATTR InstName R2
SYMATTR Value 15K
SYMBOL res 1728 1584 R90
WINDOW 0 0 56 VBottom 0
WINDOW 3 32 56 VTop 0
SYMATTR InstName R3
SYMATTR Value 105K
SYMBOL res 2144 1808 R90
WINDOW 0 0 56 VBottom 0
WINDOW 3 32 56 VTop 0
SYMATTR InstName R4
SYMATTR Value 4.3K
SYMBOL cap 2496 1616 R0
SYMATTR InstName C1
SYMATTR Value 100µ
SYMBOL cap 1616 1328 R0
WINDOW 40 24 92 Left 0
SYMATTR InstName C2
SYMATTR Value 22µ
SYMBOL cap 2144 1840 R270
WINDOW 0 32 32 VTop 0
WINDOW 3 0 32 VBottom 0
SYMATTR InstName C3
SYMATTR Value 1000p
SYMBOL cap 2048 1504 R0
SYMATTR InstName C4
SYMATTR Value 0.22µ
SYMBOL schottky 2048 1392 R0
SYMATTR InstName D1
SYMATTR Value CMDSH2-3
SYMATTR Description Diode
SYMATTR Type diode
SYMBOL cap 2144 1360 M90
WINDOW 0 0 32 VBottom 0
WINDOW 3 32 32 VTop 0
SYMATTR InstName C5
SYMATTR Value 1µ
SYMBOL cap 1696 1696 R90
WINDOW 0 0 32 VBottom 0
WINDOW 3 32 32 VTop 0
SYMATTR InstName C6
SYMATTR Value 0.001µ
SYMBOL cap 2256 1616 R0
SYMATTR InstName C7
SYMATTR Value 10p
SYMBOL PowerProducts\\LTC3602 1872 1600 R0
SYMATTR InstName U1
SYMBOL res 2624 1600 R0
SYMATTR InstName Rload
SYMATTR Value 1
TEXT 2472 1832 Left 0 !.tran 1.25m startup
TEXT 2080 1264 Bottom 0 ;LTC3602 - 2.5A, 10V Monolithic Synchronous Step-down Regulator\nInput: 4.5V to 10V     Output: 2.5V @ 2.5A
TEXT 1440 1912 Left 0 ;Note:\n  If the simulation model is not found please update with the "Sync Release" command from the "Tools" menu.\n  It remains the customer's responsibility to verify proper and reliable operation in the actual application.\n  Component substitution and printed circuit board layout may significantly affect circuit performance or reliability\n  Contact your local sales representative for assistance. This circuit is distributed to customers only for use with LTC parts\n  Copyright © 2011 Linear Technology Inc. All rights reserved.
