Version 4
SHEET 1 3300 2452
WIRE 1632 1296 1520 1296
WIRE 1712 1296 1632 1296
WIRE 1824 1296 1712 1296
WIRE 2256 1296 1920 1296
WIRE 1632 1312 1632 1296
WIRE 1824 1312 1824 1296
WIRE 1920 1312 1920 1296
WIRE 1520 1328 1520 1296
WIRE 2048 1360 2016 1360
WIRE 2112 1360 2048 1360
WIRE 2192 1360 2176 1360
WIRE 2048 1392 2048 1360
WIRE 1520 1424 1520 1408
WIRE 1632 1424 1632 1376
WIRE 1712 1472 1712 1296
WIRE 1728 1472 1712 1472
WIRE 2048 1472 2048 1456
WIRE 2048 1472 2016 1472
WIRE 2048 1488 2048 1472
WIRE 1632 1584 1616 1584
WIRE 1728 1584 1712 1584
WIRE 2048 1584 2048 1552
WIRE 2048 1584 2016 1584
WIRE 2128 1584 2048 1584
WIRE 2256 1584 2256 1296
WIRE 2256 1584 2208 1584
WIRE 2368 1584 2256 1584
WIRE 2464 1584 2368 1584
WIRE 2256 1600 2256 1584
WIRE 2464 1600 2464 1584
WIRE 2368 1616 2368 1584
WIRE 1728 1696 1712 1696
WIRE 2256 1696 2256 1680
WIRE 2256 1696 2016 1696
WIRE 2368 1696 2368 1680
WIRE 2464 1696 2464 1680
WIRE 2256 1712 2256 1696
WIRE 1648 1808 1632 1808
WIRE 1728 1808 1712 1808
WIRE 2032 1808 2016 1808
WIRE 2128 1808 2112 1808
WIRE 2208 1808 2192 1808
WIRE 2256 1808 2256 1792
WIRE 1824 1872 1824 1856
WIRE 1920 1872 1920 1856
FLAG 1920 1872 0
FLAG 1824 1872 0
FLAG 1520 1424 0
FLAG 1616 1584 0
FLAG 2464 1696 0
FLAG 2256 1808 0
FLAG 2368 1696 0
FLAG 2464 1584 OUT
FLAG 1632 1424 0
FLAG 2208 1808 0
FLAG 1520 1296 IN
FLAG 1712 1696 0
FLAG 2192 1360 0
FLAG 1632 1808 0
SYMBOL ind 2112 1600 R270
WINDOW 0 32 56 VTop 0
WINDOW 3 5 56 VBottom 0
SYMATTR InstName L1
SYMATTR Value 2.2µ
SYMBOL RES 2240 1584 R0
WINDOW 3 34 76 Left 0
SYMATTR Value 100K
SYMATTR InstName R1
SYMBOL VOLTAGE 1520 1312 R0
WINDOW 3 27 94 Left 0
SYMATTR Value 12
SYMATTR InstName V1
SYMBOL res 2240 1696 R0
SYMATTR InstName R2
SYMATTR Value 100K
SYMBOL res 1728 1568 R90
WINDOW 0 0 56 VBottom 0
WINDOW 3 32 56 VTop 0
SYMATTR InstName R3
SYMATTR Value 324K
SYMBOL res 2128 1792 R90
WINDOW 0 0 56 VBottom 0
WINDOW 3 32 56 VTop 0
SYMATTR InstName R4
SYMATTR Value 13K
SYMBOL cap 2352 1616 R0
SYMATTR InstName C1
SYMATTR Value 47µ
SYMBOL cap 1616 1312 R0
WINDOW 40 24 92 Left 0
SYMATTR InstName C2
SYMATTR Value 22µ
SYMBOL cap 2128 1824 R270
WINDOW 0 32 32 VTop 0
WINDOW 3 0 32 VBottom 0
SYMATTR InstName C3
SYMATTR Value 220p
SYMBOL cap 2032 1488 R0
SYMATTR InstName C4
SYMATTR Value 0.1µ
SYMBOL cap 2112 1376 R270
WINDOW 0 32 32 VTop 0
WINDOW 3 0 32 VBottom 0
SYMATTR InstName C5
SYMATTR Value 2.2µ
SYMBOL cap 1712 1792 R90
WINDOW 0 0 32 VBottom 0
WINDOW 3 32 32 VTop 0
SYMATTR InstName C6
SYMATTR Value 0.001µ
SYMBOL PowerProducts\\LTC3601 1872 1584 R0
SYMATTR InstName U1
SYMBOL schottky 2032 1392 R0
WINDOW 0 39 10 Left 0
WINDOW 3 38 62 Left 0
SYMATTR InstName D1
SYMATTR Value CMDSH2-3
SYMATTR Description Diode
SYMATTR Type diode
SYMBOL res 2448 1584 R0
SYMATTR InstName Rload
SYMATTR Value 0.8
TEXT 2360 1816 Left 0 !.tran 500u startup
TEXT 2000 1288 Bottom 0 ;LTC3601 - 1.5A, 15V Monolithic Synchronous Step-down Regulator\nInput: 12V     Output: 1.2V @ 1.5A
TEXT 1424 1888 Left 0 ;Note:\n  If the simulation model is not found please update with the "Sync Release" command from the "Tools" menu.\n  It remains the customer's responsibility to verify proper and reliable operation in the actual application.\n  Component substitution and printed circuit board layout may significantly affect circuit performance or reliability\n  Contact your local sales representative for assistance. This circuit is distributed to customers only for use with LTC parts\n  Copyright © 2010 Linear Technology Inc. All rights reserved.
