Version 4
SHEET 1 5868 2084
WIRE 1408 1248 1216 1248
WIRE 1520 1248 1408 1248
WIRE 1648 1248 1520 1248
WIRE 1776 1248 1648 1248
WIRE 1952 1248 1776 1248
WIRE 1216 1264 1216 1248
WIRE 1408 1264 1408 1248
WIRE 1952 1264 1952 1248
WIRE 1648 1296 1648 1248
WIRE 1776 1296 1776 1248
WIRE 1216 1360 1216 1344
WIRE 1408 1360 1408 1328
WIRE 1520 1376 1520 1248
WIRE 1552 1376 1520 1376
WIRE 2000 1376 1872 1376
WIRE 2112 1376 2080 1376
WIRE 2208 1376 2112 1376
WIRE 2304 1376 2208 1376
WIRE 2416 1376 2304 1376
WIRE 2112 1392 2112 1376
WIRE 2416 1392 2416 1376
WIRE 2208 1408 2208 1376
WIRE 2304 1408 2304 1376
WIRE 1328 1456 1216 1456
WIRE 1552 1456 1328 1456
WIRE 2000 1456 1872 1456
WIRE 1328 1472 1328 1456
WIRE 2000 1488 2000 1456
WIRE 2112 1488 2112 1472
WIRE 2112 1488 2000 1488
WIRE 2208 1488 2208 1472
WIRE 2208 1488 2112 1488
WIRE 2112 1504 2112 1488
WIRE 1216 1520 1216 1456
WIRE 2304 1520 2304 1472
WIRE 2416 1520 2416 1472
WIRE 1504 1536 1440 1536
WIRE 1552 1536 1504 1536
WIRE 1952 1536 1952 1344
WIRE 1952 1536 1872 1536
WIRE 1440 1552 1440 1536
WIRE 1328 1568 1328 1552
WIRE 1216 1648 1216 1584
WIRE 1328 1648 1328 1632
WIRE 1440 1648 1440 1632
WIRE 1648 1648 1648 1616
WIRE 1776 1648 1776 1616
WIRE 2112 1648 2112 1584
FLAG 1776 1648 0
FLAG 1648 1648 0
FLAG 1216 1360 0
FLAG 1440 1648 0
FLAG 2416 1520 0
FLAG 2112 1648 0
FLAG 2304 1520 0
FLAG 1328 1648 0
FLAG 2416 1376 OUT
FLAG 1216 1648 0
FLAG 1408 1360 0
FLAG 1504 1536 Rt
FLAG 1216 1248 IN
SYMBOL ind 1984 1392 R270
WINDOW 0 32 56 VTop 0
WINDOW 3 5 56 VBottom 0
SYMATTR InstName L1
SYMATTR Value 2.2u
SYMATTR SpiceLine Ipk=2.3 Rser=0.06 Rpar=55000 Cpar=1.8p mfg="Coilcraft" pn="DO1608P-222"
SYMBOL RES 2096 1376 R0
SYMATTR InstName R1
SYMATTR Value 20K
SYMBOL VOLTAGE 1216 1248 R0
WINDOW 123 0 0 Left 0
WINDOW 39 24 132 Left 0
SYMATTR InstName Vin
SYMATTR Value 3.3V
SYMBOL res 2096 1488 R0
SYMATTR InstName R2
SYMATTR Value 80.6K
SYMBOL res 1424 1536 R0
SYMATTR InstName R3
SYMATTR Value 324K
SYMBOL res 1312 1456 R0
SYMATTR InstName Rth
SYMATTR Value 20K
SYMBOL cap 1312 1568 R0
SYMATTR InstName Cth
SYMATTR Value 220p
SYMBOL res 1936 1248 R0
SYMATTR InstName R6
SYMATTR Value 10K
SYMBOL CURRENT 2416 1392 R0
WINDOW 39 41 49 Left 0
WINDOW 3 24 83 Left 0
WINDOW 123 0 0 Left 0
SYMATTR SpiceLine Load
SYMATTR Value 1A
SYMATTR InstName I1
SYMBOL cap 2192 1408 R0
SYMATTR InstName Cp1
SYMATTR Value 22p
SYMBOL cap 1200 1520 R0
SYMATTR InstName Cthp
SYMATTR Value 10p
SYMBOL cap 1392 1264 R0
SYMATTR SpiceLine V=6.3 Irms=0 Rser=0.0008 MTBF=0 Lser=0 mfg="TDK" pn="C3225X5R0J226M" type="X5R" ppPkg=1
SYMATTR SpiceLine2 x1
SYMATTR InstName C1
SYMATTR Value 22u
SYMBOL cap 2288 1408 R0
SYMATTR SpiceLine V=6.3 Irms=0 Rser=0.0008 MTBF=0 Lser=0 mfg="TDK" pn="C3225X5R0J226M" type="X5R" ppPkg=1
SYMATTR SpiceLine2 x1
SYMATTR InstName C2
SYMATTR Value 22u
SYMBOL LTC3411 1712 1456 R0
WINDOW 0 0 -95 Center 0
SYMATTR InstName U1
TEXT 2192 1272 Left 0 !.tran 1m startup
TEXT 1400 1176 Left 0 ;LTC3411 - 1.25A, 4MHz, Synchronous Step-Down DC/DC Converter\nVout: 1.0V at 1A, Vin: 3.3V
TEXT 1216 1704 Left 0 ;If simulation model is not found please "Synch Release".\nIt remains the customer's responsibility to verify proper and reliable operation in the actual application.   \nComponent substitution and printed circuit board layout may significantly affect circuit performance or reliability.  \nContact your local sales representative for assistance. This circuit is distributed to customers only for use with LTC parts.\nCopyright © 2006 Linear Technology Inc. All rights reserved.
