Version 4
SHEET 1 1264 680
WIRE 112 64 0 64
WIRE 320 64 192 64
WIRE -80 160 -160 160
WIRE 0 160 0 64
WIRE 0 160 -80 160
WIRE 32 160 0 160
WIRE 320 160 320 64
WIRE 320 160 288 160
WIRE -160 176 -160 160
WIRE -80 176 -80 160
WIRE -160 272 -160 256
WIRE -80 272 -80 240
WIRE 0 304 0 160
WIRE 32 304 0 304
WIRE 320 304 288 304
WIRE 416 304 320 304
WIRE 320 320 320 304
WIRE 416 320 416 304
WIRE 160 384 160 368
WIRE 320 416 320 384
WIRE 416 416 416 400
FLAG 320 416 0
FLAG 160 384 0
FLAG -160 272 0
FLAG 416 416 0
FLAG -80 272 0
FLAG -160 160 IN
FLAG 416 304 OUT
SYMBOL ind 96 80 R270
WINDOW 0 32 56 VTop 2
WINDOW 3 5 56 VBottom 2
SYMATTR InstName L1
SYMATTR Value 6.8µ
SYMBOL cap 304 320 R0
SYMATTR InstName C1
SYMATTR Value 10µ
SYMATTR SpiceLine Rser=3m
SYMBOL voltage -160 160 R0
SYMATTR InstName V1
SYMATTR Value 2
SYMBOL res 400 304 R0
SYMATTR InstName Rload
SYMATTR Value 83
SYMBOL PowerProducts\\LTC3525-3 160 208 R0
SYMATTR InstName U1
SYMBOL cap -96 176 R0
SYMATTR InstName C2
SYMATTR Value 3.3µ
SYMATTR SpiceLine V=10 Irms=11.471 Rser=0.004 MTBF=0 Lser=0 mfg="KEMET" pn="C0603C225K8PAC" type="X5R" ppPkg=1
TEXT 464 416 Left 2 !.tran 1m startup
TEXT -392 424 Left 2 ;Note:\n  If the simulation model is not found please update with the "Sync Release" command from the "Tools" menu.\n  It remains the customer's responsibility to verify proper and reliable operation in the actual application.\n  Component substitution and printed circuit board layout may significantly affect circuit performance or reliability.\n  Contact your local sales representative for assistance. This circuit is distributed to customers only for use with LTC parts.\n  Copyright © 2012 Linear Technology Inc. All rights reserved.
TEXT 168 24 Bottom 2 ;LTC3525-3 - 400mA µPower Synchronous Step-Up DC/DC Converter with Output Disconnect\nCompact, High Efficiency Boost for Single Cell Alkaline\nInput: 1V to 1.6V       Output: 3V @ 65mA
