Version 4
SHEET 1 1920 920
WIRE -640 -400 -752 -400
WIRE -496 -400 -640 -400
WIRE 1104 -400 -496 -400
WIRE -752 -384 -752 -400
WIRE 416 -384 -400 -384
WIRE 832 -384 416 -384
WIRE 912 -384 832 -384
WIRE 1024 -384 912 -384
WIRE 1136 -384 1024 -384
WIRE 1216 -384 1136 -384
WIRE -496 -368 -496 -400
WIRE 32 -368 -224 -368
WIRE 224 -368 32 -368
WIRE 656 -368 224 -368
WIRE 752 -368 656 -368
WIRE 912 -368 912 -384
WIRE 1024 -368 1024 -384
WIRE 1216 -368 1216 -384
WIRE 752 -352 752 -368
WIRE 32 -336 32 -368
WIRE 224 -336 224 -368
WIRE 416 -336 416 -384
WIRE -752 -288 -752 -304
WIRE 912 -288 912 -304
WIRE 1024 -288 1024 -304
WIRE -496 -272 -496 -288
WIRE -96 -272 -496 -272
WIRE 560 -272 544 -272
WIRE 656 -272 656 -368
WIRE 656 -272 640 -272
WIRE 752 -272 752 -288
WIRE 1216 -272 1216 -288
WIRE -496 -256 -496 -272
WIRE -400 -256 -400 -384
WIRE 656 -256 656 -272
WIRE 832 -256 832 -384
WIRE -96 -176 -352 -176
WIRE 784 -176 544 -176
WIRE -496 -160 -496 -176
WIRE -224 -160 -224 -368
WIRE -224 -80 -224 -96
WIRE -96 -80 -224 -80
WIRE 656 -80 656 -192
WIRE 656 -80 544 -80
WIRE -224 -64 -224 -80
WIRE 656 -64 656 -80
WIRE -640 16 -640 -400
WIRE -624 16 -640 16
WIRE -528 16 -544 16
WIRE -512 16 -528 16
WIRE -400 16 -400 -160
WIRE -400 16 -432 16
WIRE -224 16 -224 0
WIRE -224 16 -400 16
WIRE -96 16 -224 16
WIRE 656 16 656 0
WIRE 656 16 544 16
WIRE 832 16 832 -160
WIRE 832 16 656 16
WIRE 864 16 832 16
WIRE 992 16 944 16
WIRE 1008 16 992 16
WIRE 1104 16 1104 -400
WIRE 1104 16 1088 16
WIRE -400 32 -400 16
WIRE 832 32 832 16
WIRE -96 112 -352 112
WIRE 784 112 544 112
WIRE 832 144 832 128
WIRE -400 160 -400 128
WIRE -640 208 -640 16
WIRE -96 208 -640 208
WIRE 1104 208 1104 16
WIRE 1104 208 544 208
WIRE -528 304 -528 16
WIRE -96 304 -528 304
WIRE 992 304 992 16
WIRE 992 304 544 304
WIRE -432 400 -464 400
WIRE -320 400 -352 400
WIRE -96 400 -320 400
WIRE 640 400 544 400
WIRE 688 400 640 400
WIRE 800 400 768 400
WIRE 640 416 640 400
WIRE 800 416 800 400
WIRE -320 432 -320 400
WIRE -176 496 -192 496
WIRE -96 496 -112 496
WIRE 560 496 544 496
WIRE 640 496 640 480
WIRE 800 496 800 480
WIRE -320 528 -320 512
WIRE 48 576 48 560
WIRE 288 576 288 560
WIRE -464 608 -464 400
WIRE 1136 608 1136 -384
WIRE 1136 608 -464 608
FLAG 752 -272 0
FLAG -752 -288 0
FLAG -400 160 0
FLAG 1024 -288 0
FLAG -752 -400 IN
FLAG 832 144 0
FLAG 1216 -272 0
FLAG 1216 -384 OUT
FLAG 912 -288 0
FLAG -496 -160 0
FLAG 48 576 0
FLAG 288 576 0
FLAG 640 496 0
FLAG 800 496 0
FLAG 560 496 0
FLAG -192 496 0
FLAG -320 528 0
SYMBOL cap 736 -352 R0
SYMATTR Value 4.7µ
SYMATTR InstName C8
SYMBOL res 656 -288 R90
WINDOW 0 0 56 VBottom 0
WINDOW 3 32 56 VTop 0
SYMATTR InstName R2
SYMATTR Value 100K
SYMBOL voltage -752 -400 R0
WINDOW 123 0 0 Left 0
WINDOW 39 0 0 Left 0
SYMATTR InstName V1
SYMATTR Value 12
SYMBOL res -640 32 R270
WINDOW 0 32 56 VTop 0
WINDOW 3 0 56 VBottom 0
SYMATTR InstName Rsns1
SYMATTR Value 4m
SYMBOL ind -528 32 R270
WINDOW 0 32 56 VTop 0
WINDOW 3 5 56 VBottom 0
SYMATTR InstName L1
SYMATTR Value 3.3µ
SYMBOL nmos -352 -256 M0
WINDOW 0 2 24 Right 0
WINDOW 3 43 105 Right 0
SYMATTR InstName Q1
SYMATTR Value BSC027N04LS
SYMBOL nmos -352 32 M0
WINDOW 0 0 19 Right 0
WINDOW 3 34 105 Right 0
SYMATTR InstName Q2
SYMATTR Value BSC027N04LS
SYMBOL cap -240 -64 R0
WINDOW 3 24 52 Left 0
SYMATTR Value .1µ
SYMATTR InstName C4
SYMBOL schottky -240 -160 R0
WINDOW 3 28 65 Left 0
SYMATTR Value MBR0540
SYMATTR InstName D1
SYMATTR Description Diode
SYMATTR Type diode
SYMBOL cap 1008 -368 R0
SYMATTR InstName Cout5
SYMATTR Value 300µ
SYMATTR SpiceLine Rser=12mohm
SYMBOL res -336 416 R0
SYMATTR InstName R8
SYMATTR Value 12.1K
SYMBOL res -448 416 R270
WINDOW 0 32 56 VTop 0
WINDOW 3 0 56 VBottom 0
SYMATTR InstName R6
SYMATTR Value 232K
SYMBOL cap -176 512 R270
WINDOW 0 32 32 VTop 0
WINDOW 3 0 32 VBottom 0
SYMATTR InstName C15
SYMATTR Value 0.01µ
SYMBOL res 1104 32 M270
WINDOW 0 32 56 VTop 0
WINDOW 3 0 56 VBottom 0
SYMATTR InstName Rsns2
SYMATTR Value 4m
SYMBOL ind 960 32 M270
WINDOW 0 32 56 VTop 0
WINDOW 3 5 56 VBottom 0
SYMATTR InstName L2
SYMATTR Value 3.3µ
SYMBOL nmos 784 -256 R0
WINDOW 0 57 19 Left 0
WINDOW 3 55 78 Left 0
SYMATTR InstName Q3
SYMATTR Value BSC027N04LS
SYMBOL nmos 784 32 R0
WINDOW 3 55 72 Left 0
WINDOW 0 52 26 Left 0
SYMATTR Value BSC027N04LS
SYMATTR InstName Q4
SYMBOL cap 640 -64 R0
WINDOW 3 26 56 Left 0
SYMATTR Value .1µ
SYMATTR InstName C9
SYMBOL schottky 640 -256 R0
WINDOW 3 24 65 Left 0
SYMATTR Value MBR0540
SYMATTR InstName D2
SYMATTR Description Diode
SYMATTR Type diode
SYMBOL PowerProducts\\LTC3787 224 112 R0
SYMATTR InstName U1
SYMBOL res 1200 -384 R0
SYMATTR InstName Rload
SYMATTR Value 2.4
SYMBOL cap 624 416 R0
SYMATTR InstName C1
SYMATTR Value 100p
SYMBOL cap 784 416 R0
SYMATTR InstName C3
SYMATTR Value 15n
SYMBOL res 672 416 R270
WINDOW 0 32 56 VTop 0
WINDOW 3 0 56 VBottom 0
SYMATTR InstName R9
SYMATTR Value 12.1K
SYMBOL cap 896 -368 R0
SYMATTR InstName Cout1
SYMATTR Value 176µ
SYMATTR SpiceLine Rser=1mohm
SYMBOL res -512 -272 R0
SYMATTR InstName R34
SYMATTR Value 12.1K
SYMBOL res -512 -384 R0
SYMATTR InstName R33
SYMATTR Value 38.3K
TEXT 984 696 Left 0 !.tran 2m startup
TEXT 224 -408 Bottom 0 ;LTC3787 - PolyPhase Synchronous Boost Controller\nHigh Current 2-Phase Synchronous Boost Converter (DC1411A)\nInput: 5V-24V     Output: 24V @ 6A-10A
TEXT -368 624 Left 0 ;Notes:\n \n  C15 should be 0.1µF, not 0.01µF.  It is reduced in value here to speed up the time to simulate a soft start cycle.\n \n  If the simulation model is not found please update with the "Sync Release" command from the "Tools" menu.\n  It remains the customer's responsibility to verify proper and reliable operation in the actual application.\n  Component substitution and printed circuit board layout may significantly affect circuit performance or reliability.\n  Contact your local sales representative for assistance. This circuit is distributed to customers only for use with LTC parts.\n  Copyright © 2011 Linear Technology Inc. All rights reserved.
