Version 4
SHEET 1 3568 1256
WIRE -352 -400 -848 -400
WIRE -288 -400 -352 -400
WIRE 32 -400 -288 -400
WIRE 672 -400 32 -400
WIRE -848 -384 -848 -400
WIRE -96 -384 -224 -384
WIRE 176 -384 -96 -384
WIRE 448 -384 176 -384
WIRE 496 -384 448 -384
WIRE 592 -384 496 -384
WIRE 416 -368 -64 -368
WIRE 32 -352 32 -400
WIRE 176 -352 176 -384
WIRE 592 -352 592 -384
WIRE 496 -336 496 -384
WIRE -848 -288 -848 -304
WIRE -288 -288 -288 -400
WIRE -192 -288 -288 -288
WIRE -64 -288 -64 -368
WIRE -64 -288 -112 -288
WIRE -48 -288 -64 -288
WIRE 416 -288 416 -368
WIRE 416 -288 400 -288
WIRE 592 -272 592 -288
WIRE -224 -192 -224 -384
WIRE -208 -192 -224 -192
WIRE -48 -192 -128 -192
WIRE 496 -192 496 -256
WIRE 496 -192 400 -192
WIRE 672 -176 672 -400
WIRE -48 -96 -256 -96
WIRE 624 -96 400 -96
WIRE 448 -80 448 -384
WIRE -416 0 -496 0
WIRE -96 0 -96 -384
WIRE -48 0 -96 0
WIRE 448 0 448 -16
WIRE 448 0 400 0
WIRE -496 16 -496 0
WIRE -416 16 -416 0
WIRE -352 16 -352 -400
WIRE -96 16 -96 0
WIRE 448 16 448 0
WIRE -416 96 -480 96
WIRE -96 96 -96 80
WIRE -48 96 -96 96
WIRE 448 96 448 80
WIRE 448 96 400 96
WIRE 672 96 672 -80
WIRE 672 96 448 96
WIRE 720 96 672 96
WIRE 832 96 800 96
WIRE 848 96 832 96
WIRE 944 96 928 96
WIRE 992 96 944 96
WIRE 1088 96 992 96
WIRE 1136 96 1088 96
WIRE 672 112 672 96
WIRE 1136 112 1136 96
WIRE -96 128 -96 96
WIRE 992 128 992 96
WIRE -704 160 -832 160
WIRE -608 160 -704 160
WIRE -576 160 -608 160
WIRE -480 160 -480 96
WIRE -480 160 -512 160
WIRE -448 160 -480 160
WIRE -352 160 -352 96
WIRE -352 160 -384 160
WIRE -832 176 -832 160
WIRE -704 176 -704 160
WIRE -352 176 -352 160
WIRE 624 192 400 192
WIRE 992 208 992 192
WIRE 1136 208 1136 192
WIRE 672 224 672 208
WIRE -256 256 -256 -96
WIRE -256 256 -304 256
WIRE -832 272 -832 256
WIRE -704 272 -704 240
WIRE -352 288 -352 272
WIRE -48 288 -352 288
WIRE 832 288 832 96
WIRE 832 288 400 288
WIRE -352 304 -352 288
WIRE -608 384 -608 160
WIRE -48 384 -96 384
WIRE 944 384 944 96
WIRE 944 384 400 384
WIRE 1088 384 1088 96
WIRE -352 400 -352 384
WIRE -608 480 -608 464
WIRE -48 480 -608 480
WIRE 1088 480 1088 464
WIRE 1088 480 400 480
WIRE -608 496 -608 480
WIRE 1088 512 1088 480
WIRE -400 576 -432 576
WIRE -384 576 -400 576
WIRE -288 576 -320 576
WIRE -176 576 -208 576
WIRE -48 576 -176 576
WIRE 416 576 400 576
WIRE 512 576 496 576
WIRE 592 576 576 576
WIRE -608 592 -608 576
WIRE 1088 608 1088 592
WIRE -400 656 -400 576
WIRE -336 656 -400 656
WIRE -176 656 -176 576
WIRE -176 656 -272 656
WIRE -128 672 -144 672
WIRE -48 672 -64 672
WIRE 432 672 400 672
WIRE 544 672 496 672
WIRE 448 768 400 768
WIRE 544 768 528 768
WIRE 32 944 32 928
WIRE 176 944 176 928
WIRE 320 944 320 928
FLAG -848 -288 0
FLAG 32 944 0
FLAG 320 944 0
FLAG 672 224 0
FLAG 592 -272 0
FLAG 992 208 0
FLAG 1088 608 0
FLAG 1136 208 0
FLAG 592 576 0
FLAG 544 672 0
FLAG -96 128 0
FLAG -432 576 0
FLAG -144 672 0
FLAG 1136 96 OUT2
FLAG -496 16 0
FLAG -704 272 0
FLAG -352 400 0
FLAG -96 384 0
FLAG -608 592 0
FLAG -832 272 0
FLAG 544 768 0
FLAG -832 160 OUT1
SYMBOL voltage -848 -400 R0
WINDOW 123 24 138 Left 2
WINDOW 39 24 117 Left 2
SYMATTR Value PWL(0 0 50us 12 1m 12 1.001m 5)
SYMATTR InstName V1
SYMBOL nmos 624 -176 R0
SYMATTR InstName Q1
SYMATTR Value Si4896DY
SYMBOL nmos 624 112 R0
SYMATTR InstName Q2
SYMATTR Value Si4896DY
SYMBOL diode 432 -80 R0
SYMATTR InstName D1
SYMATTR Value 1N4148
SYMBOL cap 576 -352 R0
SYMATTR InstName C1
SYMATTR Value 4.7µ
SYMBOL cap 432 16 R0
SYMATTR InstName C2
SYMATTR Value .1µ
SYMBOL ind 704 112 R270
WINDOW 0 32 56 VTop 2
WINDOW 3 5 56 VBottom 2
SYMATTR InstName L1
SYMATTR Value 3.3µ
SYMATTR SpiceLine Rser=0.005
SYMBOL res 832 112 R270
WINDOW 0 32 56 VTop 2
WINDOW 3 0 56 VBottom 2
SYMATTR InstName R1
SYMATTR Value 3m
SYMBOL cap 976 128 R0
SYMATTR InstName C3
SYMATTR Value 330µ
SYMBOL res 1072 368 R0
SYMATTR InstName R2
SYMATTR Value 100K
SYMBOL res 1072 496 R0
SYMATTR InstName R3
SYMATTR Value 31.6K
SYMBOL cap 432 688 R270
WINDOW 0 32 32 VTop 2
WINDOW 3 0 32 VBottom 2
SYMATTR InstName C4
SYMATTR Value .001µ
SYMBOL nmos -304 176 M0
SYMATTR InstName Q3
SYMATTR Value Si4896DY
SYMBOL cap -112 16 R0
SYMATTR InstName C5
SYMATTR Value .1µ
SYMBOL cap -64 688 M270
WINDOW 0 32 32 VTop 2
WINDOW 3 0 32 VBottom 2
SYMATTR InstName C6
SYMATTR Value .001µ
SYMBOL ind2 -336 0 M0
WINDOW 0 -3 39 Right 2
WINDOW 3 -3 72 Right 2
SYMATTR InstName L2
SYMATTR Value 4.7µ
SYMATTR SpiceLine Rser=0.01
SYMBOL ind2 -432 0 R0
WINDOW 0 3 39 Right 2
WINDOW 3 0 70 Right 2
SYMATTR InstName L3
SYMATTR Value 4.7µ
SYMATTR SpiceLine Rser=0.01
SYMBOL cap -384 144 R90
WINDOW 0 0 32 VBottom 2
WINDOW 3 32 32 VTop 2
SYMATTR InstName C7
SYMATTR Value 10µ
SYMBOL cap -720 176 R0
SYMATTR InstName C8
SYMATTR Value 220µ
SYMBOL res -368 288 R0
SYMATTR InstName R4
SYMATTR Value 6m
SYMBOL res -624 368 R0
SYMATTR InstName R5
SYMATTR Value 100K
SYMBOL res -624 480 R0
SYMATTR InstName R6
SYMATTR Value 7.15K
SYMBOL res 544 752 R90
WINDOW 0 0 56 VBottom 2
WINDOW 3 32 56 VTop 2
SYMATTR InstName R7
SYMATTR Value 42K
SYMBOL schottky -512 144 R90
WINDOW 0 0 32 VBottom 2
WINDOW 3 32 32 VTop 2
SYMATTR InstName D2
SYMATTR Value PDS760
SYMATTR Description Diode
SYMATTR Type diode
SYMBOL res -208 -272 R270
WINDOW 0 32 56 VTop 2
WINDOW 3 0 56 VBottom 2
SYMATTR InstName R8
SYMATTR Value 511K
SYMBOL PowerProducts\\LTC3890-2 176 288 R0
SYMATTR InstName U1
SYMBOL res 480 -352 R0
SYMATTR InstName R9
SYMATTR Value 10K
SYMBOL res -224 -176 R270
WINDOW 0 32 56 VTop 2
WINDOW 3 0 56 VBottom 2
SYMATTR InstName R10
SYMATTR Value 10K
SYMBOL res -192 560 R90
WINDOW 0 0 56 VBottom 2
WINDOW 3 32 56 VTop 2
SYMATTR InstName R11
SYMATTR Value 9.09K
SYMBOL cap -320 560 R90
WINDOW 0 0 32 VBottom 2
WINDOW 3 32 32 VTop 2
SYMATTR InstName C9
SYMATTR Value 10n
SYMBOL cap -272 640 R90
WINDOW 0 0 32 VBottom 2
WINDOW 3 32 32 VTop 2
SYMATTR InstName C10
SYMATTR Value 47p
SYMBOL res 512 560 R90
WINDOW 0 0 56 VBottom 2
WINDOW 3 32 56 VTop 2
SYMATTR InstName R12
SYMATTR Value 15K
SYMBOL cap 576 560 R90
WINDOW 0 0 32 VBottom 2
WINDOW 3 32 32 VTop 2
SYMATTR InstName C11
SYMATTR Value 2n
SYMBOL res 1120 96 R0
SYMATTR InstName Rload2
SYMATTR Value .33
SYMBOL res -848 160 R0
SYMATTR InstName Rload1
SYMATTR Value 6
TEXT 712 864 Left 2 !.tran 2m startup
TEXT -360 -16 Right 2 !K L2 L3 1
TEXT 1136 64 Bottom 2 ;3.3V @ 10A
TEXT -832 128 Bottom 2 ;12V @ 2.0A
TEXT 184 -416 Bottom 3 ;LTC3890-2 - 60V Low IQ, Dual, 2-Phase Synchronous Step-Down DC/DC Controller\nAutomotive 12V SEPIC and 3.3V Step-Down Converter\nInput: 5V to 35V     Output: 12V @ 2A and 3.3V @ 10A
TEXT -648 960 Left 3 ;Note: \n  Smaller TRACK/SS capacitors are being used to reduce simulation time. Typical value should be 0.01µF.\n  If the simulation model is not found please update with the "Sync Release" command from the "Tools" menu.\n  It remains the customer's responsibility to verify proper and reliable operation in the actual application.\n  Component substitution and printed circuit board layout may significantly affect circuit performance or reliability.\n  Contact your local sales representative for assistance. This circuit is distributed to customers only for use with LTC parts.\n  Copyright © 2013 Linear Technology Inc.  All rights reserved.
