Version 4
SHEET 1 3356 2156
WIRE 2752 960 2752 944
WIRE 1520 1088 1408 1088
WIRE 1728 1088 1520 1088
WIRE 1936 1088 1728 1088
WIRE 2064 1088 1936 1088
WIRE 2224 1088 2064 1088
WIRE 2352 1088 2224 1088
WIRE 1520 1104 1520 1088
WIRE 1728 1120 1728 1088
WIRE 2064 1152 2064 1088
WIRE 2224 1152 2224 1088
WIRE 1520 1216 1520 1184
WIRE 1728 1216 1728 1184
WIRE 1936 1216 1936 1088
WIRE 1984 1216 1936 1216
WIRE 2352 1216 2352 1088
WIRE 2352 1216 2304 1216
WIRE 1584 1280 1472 1280
WIRE 1696 1280 1584 1280
WIRE 1792 1280 1696 1280
WIRE 1872 1280 1792 1280
WIRE 1984 1280 1952 1280
WIRE 2336 1280 2304 1280
WIRE 2480 1280 2416 1280
WIRE 2576 1280 2480 1280
WIRE 2688 1280 2576 1280
WIRE 2816 1280 2688 1280
WIRE 1696 1296 1696 1280
WIRE 1792 1296 1792 1280
WIRE 2480 1296 2480 1280
WIRE 2576 1296 2576 1280
WIRE 2816 1296 2816 1280
WIRE 1472 1312 1472 1280
WIRE 2688 1312 2688 1280
WIRE 1584 1328 1584 1280
WIRE 1984 1344 1888 1344
WIRE 2448 1344 2304 1344
WIRE 1696 1392 1696 1376
WIRE 1792 1392 1792 1360
WIRE 1792 1392 1696 1392
WIRE 1888 1392 1888 1344
WIRE 1888 1392 1792 1392
WIRE 2448 1392 2448 1344
WIRE 2480 1392 2480 1360
WIRE 2480 1392 2448 1392
WIRE 2576 1392 2576 1376
WIRE 2576 1392 2480 1392
WIRE 1696 1408 1696 1392
WIRE 1984 1408 1808 1408
WIRE 2400 1408 2304 1408
WIRE 2576 1408 2576 1392
WIRE 2688 1408 2688 1376
WIRE 2816 1408 2816 1376
WIRE 1472 1424 1472 1392
WIRE 1584 1424 1584 1392
WIRE 1808 1424 1808 1408
WIRE 2400 1424 2400 1408
WIRE 1984 1472 1920 1472
WIRE 2352 1472 2304 1472
WIRE 1696 1504 1696 1488
WIRE 2352 1504 2352 1472
WIRE 2576 1504 2576 1488
WIRE 1808 1520 1808 1504
WIRE 2400 1520 2400 1504
WIRE 1984 1536 1952 1536
WIRE 1808 1600 1808 1584
WIRE 2400 1600 2400 1584
WIRE 1408 1632 1408 1088
WIRE 1920 1632 1920 1472
WIRE 1920 1632 1408 1632
WIRE 1952 1632 1952 1536
WIRE 2048 1632 2048 1600
WIRE 2048 1632 1952 1632
WIRE 2144 1632 2144 1600
WIRE 2144 1632 2048 1632
WIRE 2240 1632 2240 1600
WIRE 2240 1632 2144 1632
WIRE 2144 1648 2144 1632
FLAG 2144 1648 0
FLAG 1520 1216 0
FLAG 2816 1408 0
FLAG 2688 1408 0
FLAG 1728 1216 0
FLAG 1520 1088 IN
FLAG 2576 1504 0
FLAG 1696 1504 0
FLAG 1584 1424 0
FLAG 2816 1280 OUT2
FLAG 1472 1280 OUT1
FLAG 1472 1424 0
FLAG 1808 1600 0
FLAG 2352 1504 0
FLAG 2400 1600 0
SYMBOL ind 2320 1296 R270
WINDOW 0 32 56 VTop 2
WINDOW 3 5 56 VBottom 2
SYMATTR InstName L1
SYMATTR Value 2.2µ
SYMATTR SpiceLine Rser=.0042
SYMBOL RES 2560 1280 R0
SYMATTR InstName R1
SYMATTR Value 665K
SYMBOL VOLTAGE 1520 1088 R0
SYMATTR SpiceLine Rser=0.01
SYMATTR InstName V1
SYMATTR Value 3.3
SYMBOL cap 2672 1312 R0
WINDOW 3 38 36 Left 2
WINDOW 40 28 66 Left 2
SYMATTR Value 10µ
SYMATTR SpiceLine2 x2
SYMATTR InstName C1
SYMATTR SpiceLine V=10 Irms=8.919 Rser=0.005 MTBF=0 Lser=0 mfg="KEMET" pn="C1210C106K8PAC" type="X5R" ppPkg=1
SYMBOL res 2560 1392 R0
SYMATTR InstName R2
SYMATTR Value 316K
SYMBOL current 2816 1296 R0
WINDOW 123 0 0 Left 2
WINDOW 39 22 105 Left 2
WINDOW 3 22 76 Left 2
SYMATTR SpiceLine load
SYMATTR Value 800m
SYMATTR InstName I1
SYMBOL cap 1712 1120 R0
WINDOW 3 37 37 Left 2
WINDOW 40 34 59 Left 2
SYMATTR Value 10µ
SYMATTR SpiceLine2 x2
SYMATTR InstName C2
SYMATTR SpiceLine V=10 Irms=8.919 Rser=0.005 MTBF=0 Lser=0 mfg="KEMET" pn="C1210C106K8PAC" type="X5R" ppPkg=1
SYMBOL cap 2464 1296 R0
SYMATTR InstName C3
SYMATTR Value 10p
SYMBOL ind 1968 1296 M270
WINDOW 0 32 56 VTop 2
WINDOW 3 5 56 VBottom 2
SYMATTR InstName L2
SYMATTR Value 1.7µ
SYMATTR SpiceLine Rser=.0042
SYMBOL cap 1776 1296 R0
WINDOW 0 33 8 Left 2
WINDOW 3 30 56 Left 2
SYMATTR InstName C4
SYMATTR Value 10p
SYMBOL res 1680 1392 R0
SYMATTR InstName R3
SYMATTR Value 392K
SYMBOL cap 1568 1328 R0
WINDOW 3 42 36 Left 2
WINDOW 40 31 68 Left 2
SYMATTR Value 20µ
SYMATTR SpiceLine2 x2
SYMATTR InstName C5
SYMATTR SpiceLine V=10 Irms=8.919 Rser=0.005 MTBF=0 Lser=0 mfg="KEMET" pn="C1210C106K8PAC" type="X5R" ppPkg=1
SYMBOL current 1472 1312 R0
WINDOW 123 0 0 Left 2
WINDOW 39 22 105 Left 2
WINDOW 3 22 76 Left 2
SYMATTR SpiceLine load
SYMATTR Value 1.4
SYMATTR InstName I2
SYMBOL PowerProducts\\LTC3417 2144 1376 R0
SYMATTR InstName U1
SYMBOL RES 1680 1280 R0
SYMATTR Value 499K
SYMATTR InstName R4
SYMBOL RES 1792 1408 R0
WINDOW 3 24 87 Left 2
SYMATTR Value 5.9K
SYMATTR InstName R5
SYMBOL cap 1792 1520 R0
WINDOW 0 38 27 Left 2
WINDOW 3 35 55 Left 2
SYMATTR InstName C6
SYMATTR Value 2200p
SYMBOL RES 2384 1408 R0
SYMATTR Value 5.9K
SYMATTR InstName R6
SYMBOL cap 2384 1520 R0
WINDOW 3 24 55 Left 2
SYMATTR Value 2200p
SYMATTR InstName C7
TEXT 2560 1584 Left 2 !.tran 900u startup
TEXT 1464 1672 Left 2 ;Note:\n  If the simulation model is not found please update with the "Sync Release" command from the "Tools" menu.\n  It remains the customer's responsibility to verify proper and reliable operation in the actual application.\n  Component substitution and printed circuit board layout may significantly affect circuit performance or reliability.\n  Contact your local sales representative for assistance. This circuit is distributed to customers only for use with LTC parts.\n  Copyright © 2006 Linear Technology Inc. All rights reserved.
TEXT 2136 1024 Center 2 ;LTC3417 - Dual 1.4A/800mA, Synchronous Step-Down Regulator in Exposed Pad DFN Package\nInput: 3.3V     Output1: 1.8V @ 1.4A         Output2: 2.5V @ 800mA
