Version 4
SHEET 1 1068 1412
WIRE -160 -48 -320 -48
WIRE -80 -48 -160 -48
WIRE -48 -48 -80 -48
WIRE 256 -48 208 -48
WIRE 368 -48 320 -48
WIRE 560 -48 368 -48
WIRE -320 -32 -320 -48
WIRE 368 -32 368 -48
WIRE 560 -32 560 -48
WIRE -160 -16 -160 -48
WIRE -80 32 -80 -48
WIRE -48 32 -80 32
WIRE 256 32 256 16
WIRE 256 32 208 32
WIRE 368 64 368 32
WIRE 560 64 560 48
WIRE -320 80 -320 48
WIRE -160 80 -160 48
WIRE -48 112 -80 112
WIRE 320 112 320 -48
WIRE 320 112 208 112
WIRE -80 144 -80 112
FLAG 560 -48 OUT
FLAG 368 64 0
FLAG 560 64 0
FLAG -320 80 0
FLAG -160 80 0
FLAG -80 144 0
FLAG -320 -48 IN
SYMBOL cap 240 16 M180
WINDOW 0 25 57 Left 0
WINDOW 3 24 8 Left 0
SYMATTR InstName C1
SYMATTR Value 1µ
SYMATTR SpiceLine V=10 Irms=10.541 Rser=0.004 MTBF=0 Lser=0 mfg="KEMET" pn="C0603C105K8PAC" type="X5R" ppPkg=1
SYMBOL cap 352 -32 R0
SYMATTR InstName C2
SYMATTR Value 4.7µ
SYMATTR SpiceLine V=10 Irms=10.158 Rser=0.004 MTBF=0 Lser=0 mfg="KEMET" pn="C0805C475K8PAC" type="X5R" ppPkg=1
SYMBOL cap -176 -16 R0
SYMATTR InstName C3
SYMATTR Value 1µ
SYMATTR SpiceLine V=10 Irms=10.541 Rser=0.004 MTBF=0 Lser=0 mfg="KEMET" pn="C0603C105K8PAC" type="X5R" ppPkg=1
SYMBOL voltage -320 -48 R0
WINDOW 123 0 0 Left 0
WINDOW 39 24 132 Left 0
SYMATTR InstName V1
SYMATTR Value 1.8
SYMBOL res 544 -48 R0
SYMATTR InstName Rload
SYMATTR Value 41
SYMBOL PowerProducts\\LTC3240-2.5 80 32 R0
SYMATTR InstName U1
TEXT 384 184 Left 0 !.tran 1.5m startup
TEXT 88 -120 Bottom 0 ;LTC3240-3.3 - Step-Up/Step-Down Charge Pump Converter in 2×2 DFN\nInput: 1.8V-5.5V   Output 2.5V @ 60mA
TEXT -448 136 Left 0 ;Notes:\n \n  1.  All Capacitors are Ceramic\n \n  2.  If the simulation model is not found please update with the "Sync Release" command from the "Tools" menu.\n       It remains the customer's responsibility to verify proper and reliable operation in the actual application.\n       Component substitution and printed circuit board layout may significantly affect circuit performance or reliability\n       Contact your local sales representative for assistance. This circuit is distributed to customers only for use with LTC parts\n       Copyright © 2006 Linear Technology Inc. All rights reserved.
