Version 4
SHEET 1 1172 748
WIRE -16 -32 -288 -32
WIRE 128 -32 -16 -32
WIRE 272 -32 176 -32
WIRE 288 -32 272 -32
WIRE 368 -32 352 -32
WIRE 672 -32 624 -32
WIRE 672 -16 672 -32
WIRE -288 0 -288 -32
WIRE -16 0 -16 -32
WIRE 128 0 128 -32
WIRE 176 0 176 -32
WIRE 272 64 272 -32
WIRE 288 64 272 64
WIRE 368 64 352 64
WIRE 672 64 672 48
WIRE 176 96 176 80
WIRE -288 112 -288 80
WIRE -16 112 -16 64
WIRE 128 160 128 80
WIRE 368 160 128 160
WIRE 672 160 624 160
WIRE 672 176 672 160
WIRE 368 256 320 256
WIRE 672 256 672 240
WIRE 368 352 352 352
WIRE 672 352 624 352
WIRE 672 368 672 352
WIRE 320 448 320 256
WIRE 368 448 320 448
WIRE 640 448 624 448
WIRE 672 448 672 432
WIRE 320 464 320 448
WIRE 496 512 496 496
WIRE 320 544 320 528
FLAG 496 512 0
FLAG 320 544 0
FLAG 352 352 0
FLAG 176 96 0
FLAG -288 112 0
FLAG 672 64 0
FLAG 672 256 0
FLAG 672 448 0
FLAG 672 160 OUT
FLAG -288 -32 IN
FLAG -16 112 0
SYMBOL PowerProducts\\LTC3108 496 208 R0
SYMATTR InstName U1
SYMBOL cap 304 464 R0
SYMATTR InstName C7
SYMATTR Value 1µ
SYMBOL voltage -288 -16 R0
WINDOW 123 24 146 Left 0
WINDOW 39 24 125 Left 0
WINDOW 3 18 104 Left 0
SYMATTR Value PWL(.1m 0 .101m 30m)
SYMATTR InstName V1
SYMBOL ind2 112 96 M180
WINDOW 0 -5 85 Right 0
WINDOW 3 -1 43 Right 0
SYMATTR InstName L1
SYMATTR Value 7.5µ
SYMATTR Type ind
SYMATTR SpiceLine Rser=85m
SYMBOL ind2 192 96 R180
WINDOW 0 -4 86 Right 0
WINDOW 3 -3 44 Right 0
SYMATTR InstName L2
SYMATTR Value 75m
SYMATTR Type ind
SYMATTR SpiceLine Rser=300
SYMBOL cap 288 -16 R270
WINDOW 0 32 32 VTop 0
WINDOW 3 0 32 VBottom 0
SYMATTR InstName C2
SYMATTR Value 1n
SYMBOL cap 288 80 R270
WINDOW 0 32 32 VTop 0
WINDOW 3 0 32 VBottom 0
SYMATTR InstName C3
SYMATTR Value 330p
SYMBOL cap 656 -16 R0
SYMATTR InstName C4
SYMATTR Value 1m
SYMBOL cap 656 176 R0
SYMATTR InstName C5
SYMATTR Value 470µ
SYMBOL cap 656 368 R0
SYMATTR InstName C6
SYMATTR Value 2.2µ
SYMBOL cap -32 0 R0
SYMATTR InstName C1
SYMATTR Value 220µ
TEXT 152 -32 Bottom 0 !K1 L1 L2 1
TEXT 760 424 Left 0 !.tran 1 startup
TEXT 760 376 Left 0 !.ic V(OUT)=3.3
TEXT -320 560 Left 0 ;Note:\n  If the simulation model is not found please update with the "Sync Release" command from the "Tools" menu.\n  It remains the customer's responsibility to verify proper and reliable operation in the actual application.\n  Component substitution and printed circuit board layout may significantly affect circuit performance or reliability.\n  Contact your local sales representative for assistance. This circuit is distributed to customers only for use with LTC parts.\n  Copyright © 2010 Linear Technology Inc. All rights reserved.
TEXT 208 -88 Bottom 0 ;LTC3108 - Peltier-Powered Energy Harvester for Remote Sensor Applications\nInput: 30mV       Output: 3.3V
