Version 4
SHEET 1 2312 1004
WIRE 1104 -80 256 -80
WIRE -144 -48 -256 -48
WIRE 160 -48 -144 -48
WIRE 384 -48 160 -48
WIRE -144 -32 -144 -48
WIRE 64 -32 -48 -32
WIRE 560 -32 64 -32
WIRE 688 -32 560 -32
WIRE 800 -32 688 -32
WIRE 912 -32 800 -32
WIRE 1040 -32 912 -32
WIRE 560 -16 560 -32
WIRE 688 -16 688 -32
WIRE 800 -16 800 -32
WIRE 912 -16 912 -32
WIRE 1040 -16 1040 -32
WIRE 64 0 64 -32
WIRE 160 0 160 -48
WIRE 256 0 256 -80
WIRE -256 16 -256 -48
WIRE -144 48 -144 32
WIRE -48 64 -48 -32
WIRE -32 64 -48 64
WIRE 512 64 352 64
WIRE 384 80 384 -48
WIRE 688 80 688 48
WIRE 800 80 800 48
WIRE 912 80 912 48
WIRE 1040 80 1040 64
WIRE -256 160 -256 96
WIRE -32 160 -256 160
WIRE 384 160 384 144
WIRE 384 160 352 160
WIRE 496 160 384 160
WIRE 560 160 560 80
WIRE 560 256 560 160
WIRE 560 256 352 256
WIRE 624 256 560 256
WIRE 736 256 704 256
WIRE 752 256 736 256
WIRE 848 256 832 256
WIRE 896 256 848 256
WIRE 976 256 896 256
WIRE 1104 256 1104 -80
WIRE 1104 256 976 256
WIRE 1232 256 1104 256
WIRE 560 272 560 256
WIRE 976 272 976 256
WIRE 1104 272 1104 256
WIRE 1232 272 1232 256
WIRE -128 352 -144 352
WIRE -32 352 -48 352
WIRE 512 352 352 352
WIRE 976 368 976 336
WIRE 1104 368 1104 336
WIRE 1232 368 1232 352
WIRE 560 384 560 368
WIRE -32 448 -64 448
WIRE 432 448 352 448
WIRE 736 448 736 256
WIRE 736 448 432 448
WIRE 432 464 432 448
WIRE 896 496 896 256
WIRE -128 544 -160 544
WIRE -32 544 -64 544
WIRE 432 544 432 528
WIRE 432 544 352 544
WIRE 848 544 848 256
WIRE 848 544 432 544
WIRE -240 640 -304 640
WIRE -96 640 -160 640
WIRE -32 640 -96 640
WIRE 896 640 896 576
WIRE 896 640 352 640
WIRE -304 656 -304 640
WIRE -96 656 -96 640
WIRE 896 656 896 640
WIRE 80 720 80 704
WIRE 240 720 240 704
WIRE -304 736 -304 720
WIRE -96 736 -96 720
WIRE 896 752 896 736
FLAG 560 384 0
FLAG 976 368 0
FLAG 1232 368 0
FLAG 896 752 0
FLAG 1232 256 OUT
FLAG -144 48 0
FLAG -304 736 0
FLAG -160 544 0
FLAG 1040 80 0
FLAG 1040 -32 IN
FLAG 80 720 0
FLAG 240 720 0
FLAG -144 352 0
FLAG 1104 368 0
FLAG -64 448 0
FLAG 912 80 0
FLAG 688 80 0
FLAG 800 80 0
FLAG -96 736 0
SYMBOL nmos 512 -16 R0
SYMATTR InstName Q1
SYMATTR Value Si7850DP
SYMBOL ind 608 272 R270
WINDOW 0 32 56 VTop 2
WINDOW 3 5 56 VBottom 2
SYMATTR InstName L1
SYMATTR Value 10µ
SYMATTR SpiceLine Rser=1.5m
SYMBOL cap 960 272 R0
WINDOW 39 26 59 Left 2
WINDOW 3 37 34 Left 2
SYMATTR SpiceLine Rser=1m
SYMATTR Value 10µ
SYMATTR InstName C1
SYMBOL res 880 480 R0
SYMATTR InstName R1
SYMATTR Value 511K
SYMBOL res 880 640 R0
SYMATTR InstName R2
SYMATTR Value 35.7K
SYMBOL cap 496 176 R270
WINDOW 0 32 32 VTop 2
WINDOW 3 0 32 VBottom 2
SYMATTR InstName C2
SYMATTR Value .1µ
SYMBOL cap -160 -32 R0
SYMATTR InstName C3
SYMATTR Value 4.7µ
SYMBOL cap -64 528 R90
WINDOW 0 0 32 VBottom 2
WINDOW 3 32 32 VTop 2
SYMATTR InstName C5
SYMATTR Value .01µ
SYMBOL voltage 1040 -32 R0
WINDOW 3 20 93 Left 2
WINDOW 123 0 0 Left 2
WINDOW 39 0 0 Left 2
SYMATTR Value 48
SYMATTR InstName V1
SYMBOL schottky 368 80 R0
WINDOW 3 20 64 Left 2
WINDOW 0 21 2 Left 2
SYMATTR Value MBRS1100
SYMATTR InstName D1
SYMATTR Description Diode
SYMATTR Type diode
SYMBOL nmos 512 272 R0
SYMATTR InstName Q2
SYMATTR Value Si7850DP
SYMBOL res 1216 256 R0
SYMATTR InstName Rload
SYMATTR Value 0.8
SYMBOL PowerProducts\\LTC3891 160 352 R0
SYMATTR InstName U1
SYMBOL res 736 272 R270
WINDOW 0 32 56 VTop 2
WINDOW 3 0 56 VBottom 2
SYMATTR InstName R4
SYMATTR Value 0.003
SYMBOL res -32 336 R90
WINDOW 0 0 56 VBottom 2
WINDOW 3 32 56 VTop 2
SYMATTR InstName R3
SYMATTR Value 30.1K
SYMBOL polcap 1088 272 R0
SYMATTR InstName C6
SYMATTR Value 150µ
SYMATTR SpiceLine Rser=10m
SYMBOL res -272 0 R0
SYMATTR InstName R5
SYMATTR Value 100K
SYMBOL polcap 896 -16 R0
SYMATTR InstName C8
SYMATTR Value 56µ
SYMATTR SpiceLine Rser=10m
SYMBOL cap 672 -16 R0
SYMATTR InstName C9
SYMATTR Value 2.2µ
SYMBOL cap 784 -16 R0
SYMATTR InstName C10
SYMATTR Value 2.2µ
SYMBOL res -144 624 R90
WINDOW 0 0 56 VBottom 2
WINDOW 3 32 56 VTop 2
SYMATTR InstName R6
SYMATTR Value 15.4K
SYMBOL cap -320 656 R0
SYMATTR InstName C4
SYMATTR Value 4.7n
SYMBOL cap -112 656 R0
SYMATTR InstName C7
SYMATTR Value 47p
SYMBOL cap 416 464 R0
SYMATTR InstName C11
SYMATTR Value 1n
TEXT 1000 776 Left 2 !.tran 1m startup
TEXT -224 816 Left 2 ;Note:\n  If the simulation model is not found please update with the "Sync Release" command from the "Tools" menu.\n  It remains the customer's responsibility to verify proper and reliable operation in the actual application.\n  Component substitution and printed circuit board layout may significantly affect circuit performance or reliability.\n  Contact your local sales representative for assistance. This circuit is distributed to customers only for use with LTC parts.\n  Copyright © 2012 Linear Technology Inc. All rights reserved.
TEXT 416 -96 Bottom 2 ;LTC3891 - Low Iq, 60V Synchronous Step-Down Controller\nLow Iq, High Voltage Step-Down Converter\nInput: 4.5V to 60V     Output: 12V @ 15A
TEXT 376 688 Left 2 ;L1          7443631000              Würth\nC8          63HVH56M               SUN Electonics\nC6          16TSVPC150            Sanyo\nC9,C10   C4532X7R2A225K     TDK\nC5           0.1µF
