Version 4
SHEET 1 1500 700
WIRE 80 -656 0 -656
WIRE 192 -656 80 -656
WIRE 288 -656 192 -656
WIRE 416 -656 288 -656
WIRE 0 -640 0 -656
WIRE 288 -640 288 -656
WIRE 416 -640 416 -656
WIRE 192 -576 192 -656
WIRE 208 -576 192 -576
WIRE 720 -576 496 -576
WIRE 1120 -576 800 -576
WIRE 1200 -576 1120 -576
WIRE 1312 -576 1200 -576
WIRE 1392 -576 1312 -576
WIRE 1120 -560 1120 -576
WIRE 1312 -560 1312 -576
WIRE 1392 -560 1392 -576
WIRE 0 -544 0 -560
WIRE 80 -480 80 -656
WIRE 96 -480 80 -480
WIRE 208 -480 176 -480
WIRE 1120 -480 1120 -496
WIRE 1120 -480 496 -480
WIRE 1200 -480 1200 -496
WIRE 1200 -480 1120 -480
WIRE 1312 -464 1312 -496
WIRE 1392 -464 1392 -480
WIRE 192 -384 192 -576
WIRE 208 -384 192 -384
WIRE 656 -384 496 -384
WIRE 816 -384 736 -384
WIRE 944 -384 816 -384
WIRE 1056 -384 944 -384
WIRE 1136 -384 1056 -384
WIRE 1200 -384 1200 -400
WIRE 816 -368 816 -384
WIRE 1056 -368 1056 -384
WIRE 1136 -368 1136 -384
WIRE 80 -288 80 -480
WIRE 96 -288 80 -288
WIRE 208 -288 176 -288
WIRE 816 -288 816 -304
WIRE 816 -288 496 -288
WIRE 944 -288 944 -304
WIRE 944 -288 816 -288
WIRE 1056 -272 1056 -304
WIRE 1136 -272 1136 -288
WIRE 192 -192 192 -384
WIRE 208 -192 192 -192
WIRE 512 -192 496 -192
WIRE 608 -192 592 -192
WIRE 688 -192 608 -192
WIRE 800 -192 688 -192
WIRE 880 -192 800 -192
WIRE 944 -192 944 -208
WIRE 608 -176 608 -192
WIRE 800 -176 800 -192
WIRE 880 -176 880 -192
WIRE 208 -96 192 -96
WIRE 608 -96 608 -112
WIRE 608 -96 496 -96
WIRE 688 -96 688 -112
WIRE 688 -96 608 -96
WIRE 800 -80 800 -112
WIRE 880 -80 880 -96
WIRE 288 -16 288 -32
WIRE 416 -16 416 -32
WIRE 688 0 688 -16
FLAG 0 -544 0
FLAG 416 -16 0
FLAG 0 -656 IN
FLAG 1312 -464 0
FLAG 1392 -464 0
FLAG 1200 -384 0
FLAG 288 -16 0
FLAG 192 -96 0
FLAG 1056 -272 0
FLAG 1136 -272 0
FLAG 944 -192 0
FLAG 800 -80 0
FLAG 880 -80 0
FLAG 688 0 0
FLAG 1392 -576 OUT1
FLAG 1136 -384 OUT2
FLAG 880 -192 OUT3
SYMBOL VOLTAGE 0 -656 R0
WINDOW 123 0 0 Left 0
WINDOW 39 0 0 Left 0
SYMATTR InstName V1
SYMATTR Value 5
SYMBOL ind 704 -560 R270
WINDOW 0 32 56 VTop 0
WINDOW 3 5 56 VBottom 0
SYMATTR InstName L1
SYMATTR Value 1.5µ
SYMATTR SpiceLine Rpar=2272
SYMBOL res 1184 -496 R0
SYMATTR InstName R1
SYMATTR Value 255K
SYMBOL PowerProducts\\LTC3545 352 -336 R0
SYMATTR InstName U1
SYMBOL res 1184 -592 R0
SYMATTR InstName R2
SYMATTR Value 511K
SYMBOL cap 1104 -560 R0
SYMATTR InstName C2
SYMATTR Value 10p
SYMBOL res 928 -304 R0
SYMATTR InstName R3
SYMATTR Value 226K
SYMBOL res 928 -400 R0
SYMATTR InstName R4
SYMATTR Value 226K
SYMBOL cap 800 -368 R0
SYMATTR InstName C4
SYMATTR Value 10p
SYMBOL res 672 -112 R0
SYMATTR InstName R5
SYMATTR Value 200K
SYMBOL res 672 -208 R0
SYMATTR InstName R6
SYMATTR Value 301K
SYMBOL cap 592 -176 R0
SYMATTR InstName C6
SYMATTR Value 10p
SYMBOL res 192 -496 R90
WINDOW 0 0 56 VBottom 0
WINDOW 3 32 56 VTop 0
SYMATTR InstName R7
SYMATTR Value 500K
SYMBOL res 80 -272 R270
WINDOW 0 32 56 VTop 0
WINDOW 3 0 56 VBottom 0
SYMATTR InstName R8
SYMATTR Value 500K
SYMBOL res 1376 -576 R0
SYMATTR InstName Rload1
SYMATTR Value 2.25
SYMBOL res 1120 -384 R0
SYMATTR InstName Rload2
SYMATTR Value 1.5
SYMBOL res 864 -192 R0
SYMATTR InstName Rload3
SYMATTR Value 1.875
SYMBOL cap 1296 -560 R0
SYMATTR InstName C1
SYMATTR Value 10µ
SYMBOL cap 1040 -368 R0
SYMATTR InstName C3
SYMATTR Value 10µ
SYMBOL cap 784 -176 R0
SYMATTR InstName C5
SYMATTR Value 10µ
SYMBOL ind 640 -368 R270
WINDOW 0 32 56 VTop 0
WINDOW 3 5 56 VBottom 0
SYMATTR InstName L2
SYMATTR Value 1.5µ
SYMATTR SpiceLine Rpar=2272
SYMBOL ind 496 -176 R270
WINDOW 0 32 56 VTop 0
WINDOW 3 5 56 VBottom 0
SYMATTR InstName L3
SYMATTR Value 1.5µ
SYMATTR SpiceLine Rpar=2272
TEXT 1088 -152 Left 0 !.tran 1m startup
TEXT 24 16 Left 0 ;Note:\n  If the simulation model is not found please update with the "Sync Release" command from the "Tools" menu.\n  It remains the customer's responsibility to verify proper and reliable operation in the actual application.\n  Component substitution and printed circuit board layout may significantly affect circuit performance or reliability\n  Contact your local sales representative for assistance. This circuit is distributed to customers only for use with LTC parts\n  Copyright © 2008 Linear Technology Inc. All rights reserved.
TEXT 664 -672 Bottom 0 ;LTC3445 - Triple 800mA Step-Down Regulator - 2.25MHz\nInput: 2.25V to 5.5V     Outputs: 1.8V@800mA, 1.2A@800mA and 1.5V@800mA
