Version 4
SHEET 1 1100 1448
WIRE -320 -96 -432 -96
WIRE -224 -96 -320 -96
WIRE -80 -96 -224 -96
WIRE -48 -96 -80 -96
WIRE 400 -96 240 -96
WIRE 496 -96 400 -96
WIRE 592 -96 496 -96
WIRE -224 -80 -224 -96
WIRE 400 -80 400 -96
WIRE 496 -80 496 -96
WIRE 592 -80 592 -96
WIRE -432 -64 -432 -96
WIRE -320 -64 -320 -96
WIRE -80 -32 -80 -96
WIRE -48 -32 -80 -32
WIRE 288 -32 240 -32
WIRE 400 16 400 -16
WIRE 496 16 496 -16
WIRE 592 16 592 0
WIRE -224 32 -224 0
WIRE -48 32 -224 32
WIRE 288 32 240 32
WIRE -432 48 -432 16
WIRE -320 48 -320 0
WIRE -224 48 -224 32
WIRE -80 96 -80 -32
WIRE -48 96 -80 96
WIRE 288 96 240 96
WIRE -224 144 -224 128
WIRE -48 160 -80 160
WIRE 288 160 240 160
WIRE -80 176 -80 160
FLAG -224 144 0
FLAG 592 -96 OUT
FLAG 496 16 0
FLAG -432 48 0
FLAG -320 48 0
FLAG -80 176 0
FLAG 400 16 0
FLAG 592 16 0
FLAG -432 -96 IN
SYMBOL cap 272 32 M180
WINDOW 0 24 64 Left 0
WINDOW 3 24 8 Left 0
SYMATTR InstName C1
SYMATTR Value 2.2µ
SYMATTR SpiceLine V=10 Irms=11.471 Rser=0.004 MTBF=0 Lser=0 mfg="KEMET" pn="C0603C225K8PAC" type="X5R" ppPkg=1
SYMBOL cap 384 -80 R0
SYMATTR InstName C2
SYMATTR Value 4.7µ
SYMATTR SpiceLine V=10 Irms=10.158 Rser=0.004 MTBF=0 Lser=0 mfg="KEMET" pn="C0805C475K8PAC" type="X5R" ppPkg=1
SYMBOL cap -336 -64 R0
SYMATTR InstName C3
SYMATTR Value 2.2µ
SYMATTR SpiceLine V=10 Irms=11.471 Rser=0.004 MTBF=0 Lser=0 mfg="KEMET" pn="C0603C225K8PAC" type="X5R" ppPkg=1
SYMBOL voltage -432 -80 R0
WINDOW 123 0 0 Left 0
WINDOW 39 24 132 Left 0
SYMATTR InstName V1
SYMATTR Value 4
SYMBOL PowerProducts\\LTC3203-1 96 32 R0
SYMATTR InstName U1
SYMBOL res -240 32 R0
SYMATTR InstName R1
SYMATTR Value 100K
SYMBOL res -240 -96 R0
SYMATTR InstName R2
SYMATTR Value 402K
SYMBOL cap 272 96 R0
SYMATTR InstName C4
SYMATTR Value 2.2µ
SYMATTR SpiceLine V=10 Irms=11.471 Rser=0.004 MTBF=0 Lser=0 mfg="KEMET" pn="C0603C225K8PAC" type="X5R" ppPkg=1
SYMBOL cap 480 -80 R0
SYMATTR InstName C5
SYMATTR Value 4.7µ
SYMATTR SpiceLine V=10 Irms=10.158 Rser=0.004 MTBF=0 Lser=0 mfg="KEMET" pn="C0805C475K8PAC" type="X5R" ppPkg=1
SYMBOL res 576 -96 R0
WINDOW 0 36 48 Left 0
SYMATTR InstName Rload
SYMATTR Value 10
TEXT 400 104 Left 0 !.tran 1m startup
TEXT 104 -152 Bottom 0 ;LTC3203-1- 500mA Output Current Low Noise Dual Mode Step-up Charge Pump\nInput: 2.7V-5.5V    Output: 5V @ 500mA
TEXT -504 200 Left 0 ;Notes:\n \n  1.  All Capacitors are Ceramic\n \n  2.  If the simulation model is not found please update with the "Sync Release" command from the "Tools" menu.\n       It remains the customer's responsibility to verify proper and reliable operation in the actual application.\n       Component substitution and printed circuit board layout may significantly affect circuit performance or reliability\n       Contact your local sales representative for assistance. This circuit is distributed to customers only for use with LTC parts\n       Copyright © 2006 Linear Technology Inc. All rights reserved.
