Version 4
SHEET 1 3372 2452
WIRE 1600 1296 1488 1296
WIRE 1680 1296 1600 1296
WIRE 1824 1296 1680 1296
WIRE 2256 1296 1920 1296
WIRE 1488 1312 1488 1296
WIRE 1600 1312 1600 1296
WIRE 1824 1312 1824 1296
WIRE 1920 1312 1920 1296
WIRE 2064 1360 2016 1360
WIRE 2112 1360 2064 1360
WIRE 2064 1376 2064 1360
WIRE 1488 1408 1488 1392
WIRE 1600 1408 1600 1376
WIRE 1680 1472 1680 1296
WIRE 1728 1472 1680 1472
WIRE 2064 1472 2064 1440
WIRE 2064 1472 2016 1472
WIRE 2064 1488 2064 1472
WIRE 1632 1584 1616 1584
WIRE 1728 1584 1712 1584
WIRE 2064 1584 2064 1552
WIRE 2064 1584 2016 1584
WIRE 2128 1584 2064 1584
WIRE 2256 1584 2256 1296
WIRE 2256 1584 2208 1584
WIRE 2352 1584 2256 1584
WIRE 2480 1584 2352 1584
WIRE 2256 1600 2256 1584
WIRE 2352 1600 2352 1584
WIRE 2480 1600 2480 1584
WIRE 2608 1616 2528 1616
WIRE 2608 1632 2608 1616
WIRE 1728 1696 1712 1696
WIRE 2256 1696 2256 1680
WIRE 2256 1696 2016 1696
WIRE 2352 1696 2352 1664
WIRE 2480 1696 2480 1680
WIRE 2256 1712 2256 1696
WIRE 2608 1728 2608 1712
WIRE 1632 1808 1616 1808
WIRE 1728 1808 1696 1808
WIRE 2032 1808 2016 1808
WIRE 2128 1808 2112 1808
WIRE 2208 1808 2192 1808
WIRE 2256 1808 2256 1792
WIRE 1824 1872 1824 1856
WIRE 1920 1872 1920 1856
FLAG 1920 1872 0
FLAG 1824 1872 0
FLAG 1488 1408 0
FLAG 1616 1584 0
FLAG 2480 1696 0
FLAG 2256 1808 0
FLAG 2352 1696 0
FLAG 2480 1584 OUT
FLAG 1600 1408 0
FLAG 2208 1808 0
FLAG 1488 1296 IN
FLAG 1712 1696 0
FLAG 2176 1360 0
FLAG 1616 1808 0
FLAG 2528 1664 0
FLAG 2608 1728 0
SYMBOL ind 2112 1600 R270
WINDOW 0 32 56 VTop 0
WINDOW 3 5 56 VBottom 0
SYMATTR InstName L1
SYMATTR Value 1.5µ
SYMATTR SpiceLine Rpar=5K
SYMBOL RES 2240 1584 R0
WINDOW 3 34 76 Left 0
SYMATTR Value 200K
SYMATTR InstName R1
SYMBOL VOLTAGE 1488 1296 R0
WINDOW 3 27 94 Left 0
SYMATTR Value 12
SYMATTR InstName V1
SYMBOL res 2240 1696 R0
SYMATTR InstName R2
SYMATTR Value 100K
SYMBOL res 1728 1568 R90
WINDOW 0 0 56 VBottom 0
WINDOW 3 32 56 VTop 0
SYMATTR InstName R3
SYMATTR Value 324K
SYMBOL res 2128 1792 R90
WINDOW 0 0 56 VBottom 0
WINDOW 3 32 56 VTop 0
SYMATTR InstName R4
SYMATTR Value 14K
SYMBOL cap 2336 1600 R0
SYMATTR InstName C1
SYMATTR Value 47µ
SYMBOL cap 1584 1312 R0
WINDOW 40 24 92 Left 0
SYMATTR InstName C2
SYMATTR Value 22µ
SYMBOL cap 2128 1824 R270
WINDOW 0 32 32 VTop 0
WINDOW 3 0 32 VBottom 0
SYMATTR InstName C3
SYMATTR Value 150p
SYMBOL cap 2048 1488 R0
WINDOW 3 26 58 Left 0
SYMATTR InstName C4
SYMATTR Value 0.1µ
SYMBOL cap 2112 1376 R270
WINDOW 0 32 32 VTop 0
WINDOW 3 0 32 VBottom 0
SYMATTR InstName C5
SYMATTR Value 2.2µ
SYMBOL cap 1696 1792 R90
WINDOW 0 0 32 VBottom 0
WINDOW 3 32 32 VTop 0
SYMATTR InstName C6
SYMATTR Value 0.01µ
SYMBOL schottky 2048 1376 R0
WINDOW 0 24 5 Left 0
SYMATTR InstName D1
SYMATTR Value CMDSH2-3
SYMATTR Description Diode
SYMATTR Type diode
SYMBOL PowerProducts\\LTC3604 1872 1584 R0
SYMATTR InstName U1
SYMBOL sw 2480 1696 R180
WINDOW 0 -22 100 Right 0
WINDOW 3 -29 0 Right 0
SYMATTR InstName Load
SYMATTR Value Load
SYMBOL voltage 2608 1616 R0
WINDOW 3 23 96 Left 0
SYMATTR InstName V2
SYMATTR Value pulse(0 1 4.5m 1u 1u 100u 200u)
TEXT 2408 1816 Left 0 !.tran 5m startup
TEXT 1872 1280 Bottom 0 ;LTC3604 - 2.5A, 15V Monolithic Synchronous Step-down Regulator\nInput: 12V     Output: 1.8V @ 2.5A
TEXT 1400 1888 Left 0 ;Note:\n  If the simulation model is not found please update with the "Sync Release" command from the "Tools" menu.\n  It remains the customer's responsibility to verify proper and reliable operation in the actual application.\n  Component substitution and printed circuit board layout may significantly affect circuit performance or reliability\n  Contact your local sales representative for assistance. This circuit is distributed to customers only for use with LTC parts\n  Copyright © 2011 Linear Technology Inc. All rights reserved.
TEXT 2288 1872 Left 0 !.model Load SW(Ron=.8 Roff=7.2 Vt=.5 Vh=-.45)
TEXT 2544 1752 Top 0 ;10% / 90% load step
