Version 4
SHEET 1 1320 680
WIRE 32 112 -32 112
WIRE 336 112 320 112
WIRE 416 112 400 112
WIRE -128 208 -224 208
WIRE -32 208 -32 192
WIRE -32 208 -128 208
WIRE 32 208 -32 208
WIRE 352 208 320 208
WIRE 560 208 352 208
WIRE 608 208 560 208
WIRE 704 208 608 208
WIRE -224 224 -224 208
WIRE -128 224 -128 208
WIRE 608 224 608 208
WIRE 704 224 704 208
WIRE -32 304 -32 208
WIRE 32 304 -32 304
WIRE 352 304 352 288
WIRE 352 304 320 304
WIRE 432 304 352 304
WIRE 528 304 512 304
WIRE -224 320 -224 304
WIRE -128 320 -128 288
WIRE 608 320 608 288
WIRE 704 320 704 304
WIRE 32 400 16 400
WIRE 336 400 320 400
WIRE 560 400 560 208
WIRE 560 400 416 400
FLAG -224 320 0
FLAG 16 400 0
FLAG 528 304 0
FLAG 608 320 0
FLAG 416 112 0
FLAG 704 320 0
FLAG -224 208 IN
FLAG 704 208 OUT
FLAG -128 320 0
SYMBOL ind -16 208 R180
WINDOW 0 -2 77 Right 2
WINDOW 3 0 38 Right 2
SYMATTR InstName L1
SYMATTR Value 10µ
SYMBOL voltage -224 208 R0
SYMATTR InstName V1
SYMATTR Value 1.5
SYMBOL cap 336 128 R270
WINDOW 3 0 32 VBottom 2
WINDOW 0 32 32 VTop 2
SYMATTR Value 4.7µ
SYMATTR InstName C1
SYMBOL res 432 384 R90
WINDOW 0 0 56 VBottom 2
WINDOW 3 32 56 VTop 2
SYMATTR InstName R1
SYMATTR Value 100K
SYMBOL LTC3026 176 256 R0
SYMATTR InstName U1
SYMBOL res 336 192 R0
SYMATTR InstName R2
SYMATTR Value 8.06K
SYMBOL res 416 320 R270
WINDOW 0 32 56 VTop 2
WINDOW 3 0 56 VBottom 2
SYMATTR InstName R3
SYMATTR Value 4.02K
SYMBOL cap 592 224 R0
SYMATTR InstName C2
SYMATTR Value 10µ
SYMBOL cap -144 224 R0
SYMATTR InstName C3
SYMATTR Value 4.7µ
SYMBOL res 688 208 R0
SYMATTR InstName Rload
SYMATTR Value .8
TEXT 520 440 Left 2 !.tran 10m startup
TEXT 184 56 Bottom 2 ;LTC3026 - 1.5A Low Input Voltage VLDO Linear Regulator\nLow Input Voltage Linear Regulator\nInput: 1.14V to 3.5V     Output: 1.2V @ 1A
TEXT -368 464 Left 2 ;Notes:\n  If the simulation model is not found please update with the "Sync Release" command from the "Tools" menu.\n  It remains the customer's responsibility to verify proper and reliable operation in the actual application.\n  Component substitution and printed circuit board layout may significantly affect circuit performance or reliability.\n  Contact your local sales representative for assistance. This circuit is distributed to customers only for use with LTC parts.\n  Copyright © 2015 Linear Technology Inc. All rights reserved.
