Version 4
SHEET 1 1348 1044
WIRE 144 32 80 32
WIRE 272 32 224 32
WIRE 80 80 80 32
WIRE 272 80 272 32
WIRE -224 144 -320 144
WIRE -96 144 -224 144
WIRE -16 144 -96 144
WIRE 0 144 -16 144
WIRE 368 144 352 144
WIRE 688 144 368 144
WIRE 768 144 688 144
WIRE 880 144 768 144
WIRE -320 160 -320 144
WIRE 768 160 768 144
WIRE 880 160 880 144
WIRE -224 176 -224 144
WIRE -96 192 -96 144
WIRE -16 224 -16 144
WIRE 0 224 -16 224
WIRE 368 224 368 144
WIRE 368 224 352 224
WIRE -320 256 -320 240
WIRE -224 256 -224 240
WIRE 768 256 768 224
WIRE 880 256 880 240
WIRE 688 272 688 144
WIRE 688 272 592 272
WIRE 592 288 592 272
WIRE 688 288 688 272
WIRE -96 304 -96 272
WIRE -96 304 -112 304
WIRE 0 304 -96 304
WIRE -176 384 -288 384
WIRE 0 384 -176 384
WIRE 592 384 592 352
WIRE 592 384 352 384
WIRE 688 384 688 368
WIRE 688 384 592 384
WIRE -288 400 -288 384
WIRE -176 400 -176 384
WIRE 688 400 688 384
WIRE 0 464 -96 464
WIRE 368 464 352 464
WIRE 384 464 368 464
WIRE 496 464 448 464
WIRE 592 464 592 384
WIRE 592 464 576 464
WIRE -96 480 -96 464
WIRE -288 496 -288 480
WIRE -176 496 -176 464
WIRE 688 496 688 480
WIRE 368 528 368 464
WIRE 448 528 368 528
WIRE 592 528 592 464
WIRE 592 528 512 528
WIRE 80 544 80 528
WIRE 272 544 272 528
WIRE -96 576 -96 560
FLAG -320 256 0
FLAG -176 304 0
FLAG 80 544 0
FLAG -224 256 0
FLAG 688 496 0
FLAG 768 256 0
FLAG 880 256 0
FLAG 880 144 OUT
FLAG -320 144 IN
FLAG -96 576 0
FLAG 272 544 0
FLAG -288 496 0
FLAG -176 496 0
SYMBOL ind 128 48 R270
WINDOW 0 32 56 VTop 0
WINDOW 3 5 56 VBottom 0
SYMATTR InstName L1
SYMATTR Value 2.2µ
SYMATTR SpiceLine Rpar=1K
SYMBOL voltage -320 144 R0
WINDOW 3 24 94 Left 0
WINDOW 123 0 0 Left 0
WINDOW 39 0 0 Left 0
SYMATTR Value 4.2
SYMATTR InstName V1
SYMBOL res -112 176 R0
SYMATTR InstName R1
SYMATTR Value 1Meg
SYMBOL cap -112 288 R90
WINDOW 0 0 32 VBottom 0
WINDOW 3 32 32 VTop 0
SYMATTR InstName C1
SYMATTR Value .002µ
SYMBOL res 672 272 R0
WINDOW 3 27 97 Left 0
SYMATTR Value 365K
SYMATTR InstName R2
SYMBOL res 672 384 R0
WINDOW 3 30 87 Left 0
SYMATTR Value 215K
SYMATTR InstName R3
SYMBOL cap 752 160 R0
SYMATTR InstName C3
SYMATTR Value 47µ
SYMBOL PowerProducts\\LTC3533 176 304 R0
SYMATTR InstName U1
SYMBOL res -112 464 R0
SYMATTR InstName R4
SYMATTR Value 33.2K
SYMBOL res -304 384 R0
SYMATTR InstName R5
SYMATTR Value 215K
SYMBOL cap -192 400 R0
SYMATTR InstName C4
SYMATTR Value .1µ
SYMBOL cap 576 288 R0
SYMATTR InstName C5
SYMATTR Value 47p
SYMBOL cap -240 176 R0
SYMATTR InstName C6
SYMATTR Value 10µ
SYMBOL res 864 144 R0
SYMATTR InstName Rload
SYMATTR Value 2.2
SYMBOL cap 448 448 R90
WINDOW 0 0 32 VBottom 0
WINDOW 3 32 32 VTop 0
SYMATTR InstName C2
SYMATTR Value .001µ
SYMBOL cap 512 512 R90
WINDOW 0 0 32 VBottom 0
WINDOW 3 32 32 VTop 0
SYMATTR InstName C7
SYMATTR Value 6.8p
SYMBOL res 592 448 R90
WINDOW 0 0 56 VBottom 0
WINDOW 3 32 56 VTop 0
SYMATTR InstName R6
SYMATTR Value 8.2K
TEXT 664 568 Left 0 !.tran 1.25m startup
TEXT 248 -24 Bottom 0 ;LTC3533 - 2A Wide Inut Voltage Synchronous Buck-Boost DC/DC Converter\nInput: 1.8V - 5.5V        Output: 3.3V @ 1.5A(derates linearly from 1.5A at 2.4Vin to 0.8A at 1.8Vin)\nBased On DC999A - High Efficiency Synchronous Buck-Boost Converter with Automatic Burst Mode
TEXT -360 600 Left 0 ;Note:\n  If the simulation model is not found please update with the "Sync Release" command from the "Tools" menu.\n  It remains the customer's responsibility to verify proper and reliable operation in the actual application.\n  Component substitution and printed circuit board layout may significantly affect circuit performance or reliability\n  Contact your local sales representative for assistance. This circuit is distributed to customers only for use with LTC parts\n  Copyright © 2008 Linear Technology Inc. All rights reserved.
