Version 4
SHEET 1 1068 1412
WIRE -160 -48 -304 -48
WIRE -80 -48 -160 -48
WIRE -48 -48 -80 -48
WIRE 336 -48 208 -48
WIRE 480 -48 336 -48
WIRE -304 -32 -304 -48
WIRE 336 -32 336 -48
WIRE 480 -32 480 -48
WIRE -160 -16 -160 -48
WIRE -80 32 -80 -48
WIRE -48 32 -80 32
WIRE 256 32 208 32
WIRE 336 64 336 32
WIRE 480 64 480 48
WIRE -304 80 -304 48
WIRE -160 80 -160 48
WIRE -48 112 -80 112
WIRE 256 112 256 96
WIRE 256 112 208 112
WIRE -80 128 -80 112
FLAG 480 -48 OUT
FLAG 336 64 0
FLAG 480 64 0
FLAG -304 80 0
FLAG -160 80 0
FLAG -80 128 0
FLAG -304 -48 IN
SYMBOL cap 240 96 M180
WINDOW 0 25 57 Left 0
WINDOW 3 24 8 Left 0
SYMATTR InstName C1
SYMATTR Value 2.2µ
SYMATTR SpiceLine V=10 Irms=11.471 Rser=0.004 MTBF=0 Lser=0 mfg="KEMET" pn="C0603C225K8PAC" type="X5R" ppPkg=1
SYMBOL cap 320 -32 R0
SYMATTR InstName C2
SYMATTR Value 4.7µ
SYMATTR SpiceLine V=10 Irms=10.158 Rser=0.004 MTBF=0 Lser=0 mfg="KEMET" pn="C0805C475K8PAC" type="X5R" ppPkg=1
SYMBOL cap -176 -16 R0
SYMATTR InstName C3
SYMATTR Value 2.2µ
SYMATTR SpiceLine V=10 Irms=11.471 Rser=0.004 MTBF=0 Lser=0 mfg="KEMET" pn="C0603C225K8PAC" type="X5R" ppPkg=1
SYMBOL voltage -304 -48 R0
WINDOW 123 0 0 Left 0
WINDOW 39 24 132 Left 0
SYMATTR InstName V1
SYMATTR Value 4
SYMBOL PowerProducts\\LTC3204-5 80 32 R0
SYMATTR InstName U1
SYMBOL res 464 -48 R0
SYMATTR InstName Rload
SYMATTR Value 33
TEXT 360 152 Left 0 !.tran 1m startup
TEXT 88 -120 Bottom 0 ;LTC3204-5 - Low Noise Regulated Charge Pump in 2×2 DFN\nInput: 2.7V-5.5V   Output 5V @ 150mA
TEXT -456 136 Left 0 ;Notes:\n \n  1.  All Capacitors are Ceramic\n \n  2.  If the simulation model is not found please update with the "Sync Release" command from the "Tools" menu.\n       It remains the customer's responsibility to verify proper and reliable operation in the actual application.\n       Component substitution and printed circuit board layout may significantly affect circuit performance or reliability\n       Contact your local sales representative for assistance. This circuit is distributed to customers only for use with LTC parts\n       Copyright © 2006 Linear Technology Inc. All rights reserved.
