Version 4
SHEET 1 3300 2452
WIRE 2112 1264 1408 1264
WIRE 1584 1296 1472 1296
WIRE 1696 1296 1584 1296
WIRE 1824 1296 1696 1296
WIRE 1952 1296 1824 1296
WIRE 1472 1312 1472 1296
WIRE 1584 1312 1584 1296
WIRE 1824 1312 1824 1296
WIRE 1952 1312 1952 1296
WIRE 2112 1344 2112 1264
WIRE 2176 1344 2112 1344
WIRE 1696 1360 1696 1296
WIRE 1712 1360 1696 1360
WIRE 1472 1408 1472 1392
WIRE 1584 1408 1584 1376
WIRE 1408 1440 1408 1264
WIRE 1712 1440 1408 1440
WIRE 2112 1440 2112 1344
WIRE 2112 1440 2064 1440
WIRE 1632 1520 1616 1520
WIRE 1712 1520 1696 1520
WIRE 2112 1520 2112 1504
WIRE 2112 1520 2064 1520
WIRE 1712 1600 1696 1600
WIRE 2112 1600 2112 1584
WIRE 2112 1600 2064 1600
WIRE 2208 1600 2112 1600
WIRE 2320 1600 2288 1600
WIRE 2384 1600 2320 1600
WIRE 2480 1600 2384 1600
WIRE 2608 1600 2480 1600
WIRE 2608 1632 2608 1600
WIRE 2384 1648 2384 1600
WIRE 2480 1648 2480 1600
WIRE 2320 1680 2320 1600
WIRE 2320 1680 2064 1680
WIRE 1408 1760 1408 1440
WIRE 1712 1760 1408 1760
WIRE 2384 1760 2384 1728
WIRE 2384 1760 2064 1760
WIRE 2480 1760 2480 1712
WIRE 2608 1760 2608 1712
WIRE 2384 1792 2384 1760
WIRE 1616 1840 1600 1840
WIRE 1712 1840 1696 1840
WIRE 2128 1840 2064 1840
WIRE 2176 1840 2128 1840
WIRE 2288 1840 2256 1840
WIRE 2128 1856 2128 1840
WIRE 2288 1856 2288 1840
WIRE 2384 1888 2384 1872
WIRE 1824 1904 1824 1888
WIRE 1952 1904 1952 1888
WIRE 2128 1936 2128 1920
WIRE 2288 1936 2288 1920
FLAG 1952 1904 0
FLAG 1824 1904 0
FLAG 1472 1408 0
FLAG 1600 1840 0
FLAG 2608 1760 0
FLAG 2384 1888 0
FLAG 2480 1760 0
FLAG 2128 1936 0
FLAG 2608 1600 OUT
FLAG 1584 1408 0
FLAG 2288 1936 0
FLAG 1472 1296 IN
FLAG 1696 1600 0
FLAG 2176 1408 0
FLAG 1616 1520 0
SYMBOL ind 2192 1616 R270
WINDOW 0 32 56 VTop 2
WINDOW 3 5 56 VBottom 2
SYMATTR InstName L1
SYMATTR Value 1µ
SYMBOL RES 2368 1632 R0
WINDOW 3 34 76 Left 2
SYMATTR Value 2K
SYMATTR InstName R1
SYMBOL VOLTAGE 1472 1296 R0
WINDOW 3 27 94 Left 2
SYMATTR Value 12
SYMATTR InstName V1
SYMBOL res 2368 1776 R0
SYMATTR InstName R2
SYMATTR Value 1K
SYMBOL res 1712 1824 R90
WINDOW 0 0 56 VBottom 2
WINDOW 3 32 56 VTop 2
SYMATTR InstName R3
SYMATTR Value 162K
SYMBOL res 2272 1824 R90
WINDOW 0 0 56 VBottom 2
WINDOW 3 32 56 VTop 2
SYMATTR InstName R4
SYMATTR Value 15K
SYMBOL cap 2464 1648 R0
SYMATTR InstName C1
SYMATTR Value 100µ
SYMBOL cap 2112 1856 R0
SYMATTR InstName C2
SYMATTR Value 10p
SYMBOL cap 1568 1312 R0
WINDOW 40 31 57 Left 2
WINDOW 3 40 33 Left 2
SYMATTR SpiceLine2 x2
SYMATTR Value 22µ
SYMATTR InstName C3
SYMBOL cap 2272 1856 R0
SYMATTR InstName C4
SYMATTR Value 220p
SYMBOL load2 2608 1632 R0
WINDOW 3 25 79 Left 2
WINDOW 123 0 0 Left 2
WINDOW 39 46 36 Left 2
SYMATTR Value PULSE(0.1 5 300u 5n 5n 50u 100u)
SYMATTR SpiceLine load
SYMATTR InstName I1
SYMBOL cap 2096 1520 R0
WINDOW 0 41 19 Left 2
WINDOW 3 44 53 Left 2
SYMATTR InstName C5
SYMATTR Value 0.1µ
SYMBOL cap 2160 1344 R0
WINDOW 0 48 4 Left 2
WINDOW 3 45 46 Left 2
SYMATTR InstName C6
SYMATTR Value 2.2µ
SYMBOL cap 1696 1504 R90
WINDOW 0 0 32 VBottom 2
WINDOW 3 32 32 VTop 2
SYMATTR InstName C7
SYMATTR Value 0.001µ
SYMBOL LTC3605A 1888 1600 R0
SYMATTR InstName U1
SYMBOL schottky 2096 1440 R0
SYMATTR InstName D1
SYMATTR Value CMDSH2-3
SYMATTR Description Diode
SYMATTR Type diode
TEXT 2536 1840 Left 2 !.tran 500u startup
TEXT 1968 1248 Bottom 2 ;LTC3605A - 20V, 5A Monolithic Synchronous Step-down Regulator\nHigh Efficiency 1MHz, 5A Buck Regulator\nInput: 4V to 20V     Output: 1.8V @ 5A, Fsw = 1MHz
TEXT 1432 1952 Left 2 ;Note:\n  If the simulation model is not found please update with the "Sync Release" command from the "Tools" menu.\n  It remains the customer's responsibility to verify proper and reliable operation in the actual application.\n  Component substitution and printed circuit board layout may significantly affect circuit performance or reliability\n  Contact your local sales representative for assistance. This circuit is distributed to customers only for use with LTC parts\n  Copyright © 2014 Linear Technology Inc. All rights reserved.
