Version 4
SHEET 1 1272 748
WIRE -144 16 -240 16
WIRE 80 16 -144 16
WIRE -240 32 -240 16
WIRE 208 32 -48 32
WIRE 336 32 208 32
WIRE 384 32 336 32
WIRE 480 32 448 32
WIRE 80 48 80 16
WIRE 208 48 208 32
WIRE -144 112 -144 16
WIRE -32 112 -144 112
WIRE 432 112 320 112
WIRE 544 112 432 112
WIRE 640 112 544 112
WIRE -240 128 -240 112
WIRE 544 128 544 112
WIRE 640 128 640 112
WIRE -144 144 -144 112
WIRE 432 160 432 112
WIRE 368 208 320 208
WIRE -144 224 -144 208
WIRE 368 224 368 208
WIRE 544 224 544 192
WIRE 640 224 640 208
WIRE -160 304 -272 304
WIRE -32 304 -160 304
WIRE 368 304 368 288
WIRE 368 304 320 304
WIRE 432 304 432 240
WIRE 432 304 368 304
WIRE -272 320 -272 304
WIRE -160 320 -160 304
WIRE -48 400 -48 32
WIRE -32 400 -48 400
WIRE 336 400 336 32
WIRE 336 400 320 400
WIRE -272 416 -272 384
WIRE -160 416 -160 400
WIRE -48 496 -48 400
WIRE -32 496 -48 496
WIRE 336 496 336 400
WIRE 336 496 320 496
WIRE 144 576 144 560
FLAG 144 576 0
FLAG -240 128 0
FLAG 544 224 0
FLAG 640 224 0
FLAG 640 112 OUT
FLAG -240 16 IN
FLAG -272 416 0
FLAG -160 416 0
FLAG 480 32 0
FLAG -144 224 0
SYMBOL voltage -240 16 R0
SYMATTR InstName V1
SYMATTR Value 12
SYMBOL cap 528 128 R0
SYMATTR InstName C1
SYMATTR Value 22µ
SYMATTR SpiceLine Rser=10m
SYMBOL res 624 112 R0
SYMATTR InstName Rload
SYMATTR Value 2.5
SYMBOL PowerProducts\\LTC3600 144 304 R0
SYMATTR InstName U1
SYMBOL res -176 304 R0
SYMATTR InstName R1
SYMATTR Value 49.9K
SYMBOL cap -288 320 R0
SYMATTR InstName C2
SYMATTR Value .002µ
SYMBOL cap 448 16 R90
WINDOW 0 0 32 VBottom 2
WINDOW 3 32 32 VTop 2
SYMATTR InstName C3
SYMATTR Value 1µ
SYMBOL cap 352 224 R0
SYMATTR InstName C4
SYMATTR Value .1µ
SYMBOL ind 416 144 R0
SYMATTR InstName L1
SYMATTR Value 2.2µ
SYMBOL cap -160 144 R0
SYMATTR InstName C5
SYMATTR Value 10µ
TEXT 440 488 Left 2 !.tran 1m startup
TEXT 160 0 Bottom 2 ;LTC3600- 1.5A, Synchronous Rail to Rail Step-Down Regulator\nHigh Efficiency, 1MHz, 1A Step-Down Converter\nInput : 4V to 15V     Output: 2.5V @ 1A
TEXT -424 584 Left 2 ;Note:\n  If the simulation model is not found please update with the "Sync Release" command from the "Tools" menu.\n  It remains the customer's responsibility to verify proper and reliable operation in the actual application.\n  Component substitution and printed circuit board layout may significantly affect circuit performance or reliability\n  Contact your local sales representative for assistance. This circuit is distributed to customers only for use with LTC parts\n  Copyright © 2012 Linear Technology Inc. All rights reserved.
