Version 4
SHEET 1 2864 1772
WIRE 1296 1120 1200 1120
WIRE 1632 1120 1296 1120
WIRE 1824 1120 1632 1120
WIRE 1984 1120 1824 1120
WIRE 2208 1120 2032 1120
WIRE 2320 1120 2208 1120
WIRE 2432 1120 2320 1120
WIRE 2544 1120 2432 1120
WIRE 1200 1136 1200 1120
WIRE 1296 1136 1296 1120
WIRE 1824 1136 1824 1120
WIRE 1984 1136 1984 1120
WIRE 2032 1136 2032 1120
WIRE 2320 1136 2320 1120
WIRE 2432 1136 2432 1120
WIRE 2544 1136 2544 1120
WIRE 1632 1184 1632 1120
WIRE 1200 1232 1200 1216
WIRE 1296 1232 1296 1200
WIRE 1392 1232 1376 1232
WIRE 1472 1232 1456 1232
WIRE 1824 1232 1824 1216
WIRE 1824 1232 1792 1232
WIRE 1984 1232 1984 1216
WIRE 1984 1232 1952 1232
WIRE 2032 1232 2032 1216
WIRE 2080 1232 2032 1232
WIRE 2320 1232 2320 1200
WIRE 2432 1232 2432 1200
WIRE 2544 1232 2544 1216
WIRE 1952 1264 1952 1232
WIRE 1984 1264 1952 1264
WIRE 2080 1264 2080 1232
WIRE 2080 1264 2048 1264
WIRE 2080 1312 2080 1264
WIRE 1472 1328 1440 1328
WIRE 1952 1328 1952 1264
WIRE 1952 1328 1792 1328
WIRE 2208 1328 2208 1120
WIRE 1952 1344 1952 1328
WIRE 2080 1392 2080 1376
WIRE 1296 1424 1280 1424
WIRE 1376 1424 1360 1424
WIRE 1472 1424 1456 1424
WIRE 1904 1424 1792 1424
WIRE 2208 1440 2208 1408
WIRE 2208 1440 2128 1440
WIRE 1952 1456 1952 1440
WIRE 2208 1456 2208 1440
WIRE 1376 1520 1360 1520
WIRE 1472 1520 1456 1520
WIRE 2128 1520 2128 1440
WIRE 2128 1520 1792 1520
WIRE 2208 1552 2208 1536
WIRE 1632 1584 1632 1568
FLAG 1952 1456 0
FLAG 1360 1520 0
FLAG 2208 1552 0
FLAG 1632 1584 0
FLAG 2432 1232 0
FLAG 1280 1424 0
FLAG 2544 1232 0
FLAG 1200 1232 0
FLAG 1440 1328 0
FLAG 1376 1232 0
FLAG 2080 1392 0
FLAG 2544 1120 OUT
FLAG 1200 1120 IN
FLAG 1296 1232 0
FLAG 2320 1232 0
SYMBOL NMOS 1904 1344 R0
SYMATTR InstName Q1
SYMATTR Value Si7884DP
SYMBOL RES 1472 1504 R90
WINDOW 0 0 56 VBottom 2
WINDOW 3 32 56 VTop 2
SYMATTR InstName R1
SYMATTR Value 80K
SYMBOL res 2192 1440 R0
SYMATTR InstName R2
SYMATTR Value 1.24K
SYMBOL res 2192 1312 R0
SYMATTR InstName R3
SYMATTR Value 4.02K
SYMBOL schottky 2064 1312 R0
SYMATTR Value B540C
SYMATTR InstName D1
SYMBOL res 1472 1408 R90
WINDOW 0 0 56 VBottom 2
WINDOW 3 32 56 VTop 2
SYMATTR InstName R4
SYMATTR Value 20K
SYMBOL cap 1360 1408 R90
WINDOW 0 0 32 VBottom 2
WINDOW 3 32 32 VTop 2
SYMATTR InstName C2
SYMATTR Value .0047µ
SYMBOL res 2528 1120 R0
SYMATTR InstName Rload
SYMATTR Value 2
SYMBOL VOLTAGE 1200 1120 R0
WINDOW 123 0 0 Left 2
WINDOW 39 0 0 Left 2
SYMATTR InstName V1
SYMATTR Value 10
SYMBOL polcap 1456 1216 R90
WINDOW 0 0 32 VBottom 2
WINDOW 3 32 32 VTop 2
SYMATTR InstName C3
SYMATTR Value 4.7µ
SYMBOL PowerProducts\\LTC3704 1632 1376 R0
SYMATTR InstName U1
SYMBOL ind2 1968 1232 M180
WINDOW 0 -3 75 Right 2
WINDOW 3 1 39 Right 2
SYMATTR InstName L1
SYMATTR Value 4.7µ
SYMATTR Type ind
SYMATTR SpiceLine Rser=0.01
SYMBOL ind2 2048 1232 R180
WINDOW 0 -3 75 Right 2
WINDOW 3 -3 40 Right 2
SYMATTR InstName L2
SYMATTR Value 4.7µ
SYMATTR Type ind
SYMATTR SpiceLine Rser=0.01
SYMBOL res 1808 1120 R0
SYMATTR InstName R5
SYMATTR Value 274K
SYMBOL cap 1280 1136 R0
SYMATTR InstName C4
SYMATTR Value 47µ
SYMATTR SpiceLine Rser=0.003
SYMBOL polcap 2416 1200 M180
WINDOW 0 24 57 Left 2
WINDOW 3 24 8 Left 2
SYMATTR InstName C1
SYMATTR Value 150µ
SYMATTR SpiceLine Rser=0.01
SYMBOL cap 2304 1136 R0
SYMATTR InstName C5
SYMATTR Value 10µ
SYMATTR SpiceLine Rser=0.003
SYMBOL cap 2048 1248 R90
WINDOW 0 0 32 VBottom 2
WINDOW 3 32 32 VTop 2
SYMATTR InstName C6
SYMATTR Value 22µ
SYMATTR SpiceLine Rser=0.003
TEXT 2368 1544 Left 2 !.tran 1m startup
TEXT 2008 1120 Bottom 2 !K1 L1 L2 1
TEXT 1872 1080 Bottom 2 ;LTC3704 - Wide Input Range, No Rsense Positive-to-Negative DC/DC Controller\nHigh Efficiency Positive-to-Negative Converter\n Input: +5V to +15V     Output -5.2V @ 2.5A
TEXT 1208 1608 Left 2 ;Notes: \n  If the simulation model is not found please update with the "Sync Release" command from the "Tools" menu.\n  It remains the customer's responsibility to verify proper and reliable operation in the actual application.\n  Component substitution and printed circuit board layout may significantly affect circuit performance or reliability.\n  Contact your local sales representative for assistance. This circuit is distributed to customers only for use with LTC parts.\n  Copyright © 2013 Linear Technology Inc.  All rights reserved.
