Version 4
SHEET 1 1972 1388
WIRE 1104 -16 720 -16
WIRE -416 64 -816 64
WIRE -384 64 -416 64
WIRE -288 64 -384 64
WIRE -32 64 -288 64
WIRE 720 64 720 -16
WIRE 720 64 -32 64
WIRE 832 64 720 64
WIRE 944 64 880 64
WIRE -816 80 -816 64
WIRE -384 80 -384 64
WIRE -288 80 -288 64
WIRE 944 80 944 64
WIRE 80 96 -208 96
WIRE 192 96 80 96
WIRE 80 112 80 96
WIRE -32 144 -32 64
WIRE 816 144 640 144
WIRE 832 144 816 144
WIRE 912 144 880 144
WIRE 960 144 912 144
WIRE 1216 144 1024 144
WIRE 1280 144 1216 144
WIRE 1392 144 1280 144
WIRE 1472 144 1392 144
WIRE 1536 144 1472 144
WIRE 1280 160 1280 144
WIRE 1392 160 1392 144
WIRE 1536 160 1536 144
WIRE -384 176 -384 144
WIRE -288 176 -288 144
WIRE 640 176 640 144
WIRE -816 192 -816 160
WIRE 80 192 80 176
WIRE 192 192 192 96
WIRE 336 192 336 176
WIRE 480 192 480 176
WIRE 816 208 816 144
WIRE 832 208 816 208
WIRE 912 208 912 144
WIRE 912 208 896 208
WIRE -32 256 -32 224
WIRE 112 256 -32 256
WIRE 592 256 560 256
WIRE 912 256 848 256
WIRE 1104 256 1104 -16
WIRE 1104 256 912 256
WIRE 1280 256 1280 224
WIRE 1392 256 1392 224
WIRE 1536 256 1536 240
WIRE -32 272 -32 256
WIRE 848 272 848 256
WIRE -816 288 -816 272
WIRE 912 336 912 256
WIRE 976 336 912 336
WIRE 1136 336 1024 336
WIRE 640 352 640 272
WIRE 640 352 560 352
WIRE 848 352 848 336
WIRE 1136 352 1136 336
WIRE -32 368 -32 352
WIRE 640 368 640 352
WIRE -416 384 -416 64
WIRE -320 384 -416 384
WIRE -416 400 -416 384
WIRE 928 416 896 416
WIRE 976 416 928 416
WIRE 1040 416 1024 416
WIRE 1104 416 1040 416
WIRE 1216 416 1216 144
WIRE 1216 416 1168 416
WIRE 1264 416 1216 416
WIRE 1376 416 1264 416
WIRE 1472 416 1472 144
WIRE 1472 416 1376 416
WIRE 1264 432 1264 416
WIRE 1376 432 1376 416
WIRE 112 448 96 448
WIRE 576 448 560 448
WIRE -320 464 -320 384
WIRE 640 464 640 448
WIRE 896 464 896 416
WIRE 928 464 928 416
WIRE 960 464 928 464
WIRE 1040 464 1040 416
WIRE 1040 464 1024 464
WIRE -416 512 -416 480
WIRE -384 512 -416 512
WIRE 1264 528 1264 496
WIRE 1376 528 1376 496
WIRE -416 544 -416 512
WIRE 848 544 560 544
WIRE -320 576 -320 560
WIRE -208 576 -208 96
WIRE -208 576 -320 576
WIRE -208 608 -208 576
WIRE 1472 608 1472 416
WIRE 1472 608 1120 608
WIRE -416 640 -416 608
WIRE 16 640 0 640
WIRE 112 640 96 640
WIRE 896 640 896 560
WIRE 896 640 560 640
WIRE 896 656 896 640
WIRE 1120 704 1120 608
WIRE 112 736 96 736
WIRE 576 736 560 736
WIRE 896 752 896 736
WIRE 1120 832 1120 784
WIRE 1120 832 560 832
WIRE 1120 848 1120 832
WIRE 704 928 560 928
WIRE 768 928 704 928
WIRE 880 928 848 928
WIRE 704 944 704 928
WIRE 880 944 880 928
WIRE 1120 944 1120 928
WIRE 112 1024 96 1024
WIRE 576 1024 560 1024
WIRE 704 1024 704 1008
WIRE 880 1024 880 1008
WIRE 192 1104 192 1088
WIRE 480 1104 480 1088
WIRE -208 1152 -208 672
WIRE 1472 1152 1472 608
WIRE 1472 1152 -208 1152
FLAG -416 640 0
FLAG 192 1104 0
FLAG 0 640 0
FLAG 1120 944 0
FLAG -32 368 0
FLAG -816 288 0
FLAG 1392 256 0
FLAG 1536 256 0
FLAG 640 464 0
FLAG 336 112 0
FLAG 1536 144 OUT
FLAG 480 1104 0
FLAG 640 1024 0
FLAG 96 448 0
FLAG 96 736 0
FLAG 96 1024 0
FLAG 480 112 0
FLAG 576 448 0
FLAG 576 736 0
FLAG 896 752 0
FLAG -816 64 IN
FLAG 944 80 0
FLAG 1136 352 0
FLAG 848 352 0
FLAG 1280 256 0
FLAG 1376 528 0
FLAG 1264 528 0
FLAG 880 1024 0
FLAG 80 192 0
FLAG -384 176 0
FLAG -288 176 0
FLAG 704 1024 0
SYMBOL zener -432 608 M180
WINDOW 0 24 64 Left 2
WINDOW 3 24 0 Left 2
SYMATTR InstName D1
SYMATTR Value BZX84C8V2L
SYMATTR Description Diode
SYMATTR Type diode
SYMBOL res -432 384 R0
SYMATTR InstName R1
SYMATTR Value 10K
SYMBOL npn -384 464 R0
SYMATTR InstName Q1
SYMATTR Value 2N5550
SYMBOL nmos 592 176 R0
WINDOW 3 54 74 Left 2
WINDOW 0 60 16 Left 2
SYMATTR Value BSC060N10NS3
SYMATTR InstName Q2
SYMBOL res 112 624 R90
WINDOW 0 0 56 VBottom 2
WINDOW 3 32 56 VTop 2
SYMATTR InstName R2
SYMATTR Value 43.2K
SYMBOL res 1104 688 R0
SYMATTR InstName R3
SYMATTR Value 110K
SYMBOL res 1104 832 R0
SYMATTR InstName R4
SYMATTR Value 12.4K
SYMBOL res -48 128 R0
SYMATTR InstName R5
SYMATTR Value 845K
SYMBOL res -48 256 R0
SYMATTR InstName R6
SYMATTR Value 249K
SYMBOL voltage -816 64 R0
WINDOW 123 24 138 Left 2
WINDOW 39 24 117 Left 2
SYMATTR Value PULSE(0 14 0 1u 1u .5m 1m)
SYMATTR InstName V1
SYMBOL res 624 352 R0
SYMATTR InstName R7
SYMATTR Value 5m
SYMBOL cap 320 112 R0
WINDOW 0 35 14 Left 2
WINDOW 3 35 59 Left 2
SYMATTR InstName C1
SYMATTR Value 4.7µ
SYMBOL cap 640 1008 R90
WINDOW 0 0 32 VBottom 2
WINDOW 3 32 32 VTop 2
SYMATTR InstName C2
SYMATTR Value .01µ
SYMBOL cap 464 112 R0
WINDOW 0 37 16 Left 2
WINDOW 3 33 58 Left 2
SYMATTR InstName C3
SYMATTR Value .001µ
SYMBOL res 880 640 R0
SYMATTR InstName R8
SYMATTR Value 5m
SYMBOL nmos 848 464 R0
WINDOW 3 54 76 Left 2
WINDOW 0 54 32 Left 2
SYMATTR Value BSC060N10NS3
SYMATTR InstName Q3
SYMBOL PowerProducts\\LTC3862-2 336 592 R0
SYMATTR InstName U1
SYMBOL ind2 816 160 M180
WINDOW 0 -1 71 Right 2
WINDOW 3 0 44 Right 2
SYMATTR InstName L1
SYMATTR Value 6.8µ
SYMATTR SpiceLine Rser=20m
SYMATTR Type ind
SYMBOL ind2 896 160 R180
WINDOW 0 -1 70 Right 2
WINDOW 3 -2 42 Right 2
SYMATTR InstName L2
SYMATTR Value 6.8µ
SYMATTR SpiceLine Rser=20m
SYMATTR Type ind
SYMBOL ind2 960 432 M180
WINDOW 0 -5 73 Right 2
WINDOW 3 4 40 Right 2
SYMATTR InstName L3
SYMATTR Value 6.8µ
SYMATTR SpiceLine Rser=20m
SYMATTR Type ind
SYMBOL ind2 1040 432 R180
WINDOW 0 -13 72 Right 2
WINDOW 3 -6 38 Right 2
SYMATTR InstName L4
SYMATTR Value 6.8µ
SYMATTR SpiceLine Rser=20m
SYMATTR Type ind
SYMBOL schottky 960 160 R270
WINDOW 0 32 32 VTop 2
WINDOW 3 0 32 VBottom 2
SYMATTR InstName D2
SYMATTR Value MBR20100CT
SYMATTR Description Diode
SYMATTR Type diode
SYMBOL cap 896 192 R90
WINDOW 0 0 32 VBottom 2
WINDOW 3 32 32 VTop 2
SYMATTR InstName C4
SYMATTR Value 10µ
SYMATTR SpiceLine Rser=5m
SYMBOL cap 1024 448 R90
WINDOW 0 0 32 VBottom 2
WINDOW 3 32 32 VTop 2
SYMATTR InstName C5
SYMATTR Value 10µ
SYMATTR SpiceLine Rser=5m
SYMBOL schottky 1104 432 R270
WINDOW 0 32 32 VTop 2
WINDOW 3 0 32 VBottom 2
SYMATTR InstName D3
SYMATTR Value MBR20100CT
SYMATTR Description Diode
SYMATTR Type diode
SYMBOL cap -304 80 R0
SYMATTR InstName C6
SYMATTR Value 4.7µ
SYMBOL polcap -400 80 R0
SYMATTR InstName C7
SYMATTR Value 100µ
SYMBOL cap 832 272 R0
SYMATTR InstName C8
SYMATTR Value 4.7µ
SYMBOL polcap 1376 160 R0
SYMATTR InstName C9
SYMATTR Value 100µ
SYMATTR SpiceLine Rser=20m
SYMBOL cap 1264 160 R0
WINDOW 123 29 63 Left 2
WINDOW 3 37 33 Left 2
WINDOW 0 26 3 Left 2
SYMATTR Value2 x2
SYMATTR Value 47µ
SYMATTR InstName C10
SYMATTR SpiceLine Rser=5m
SYMBOL polcap 1360 432 R0
SYMATTR InstName C11
SYMATTR Value 100µ
SYMATTR SpiceLine Rser=20m
SYMBOL cap 1248 432 R0
WINDOW 123 29 61 Left 2
WINDOW 3 37 33 Left 2
WINDOW 0 24 4 Left 2
SYMATTR Value2 x2
SYMATTR Value 47µ
SYMATTR InstName C12
SYMATTR SpiceLine Rser=5m
SYMBOL res 864 912 R90
WINDOW 0 0 56 VBottom 2
WINDOW 3 32 56 VTop 2
SYMATTR InstName R9
SYMATTR Value 13.7K
SYMBOL cap 864 1008 M180
WINDOW 0 24 56 Left 2
WINDOW 3 24 8 Left 2
SYMATTR InstName C13
SYMATTR Value 15n
SYMBOL cap 688 1008 M180
WINDOW 0 24 56 Left 2
WINDOW 3 24 8 Left 2
SYMATTR InstName C14
SYMATTR Value 100p
SYMBOL schottky -224 672 M180
WINDOW 0 24 64 Left 2
WINDOW 3 22 -1 Left 2
SYMATTR InstName D4
SYMATTR Value MBR0530L
SYMATTR Description Diode
SYMATTR Type diode
SYMBOL cap 64 112 R0
SYMATTR InstName C15
SYMATTR Value 4.7µ
SYMBOL res 1520 144 R0
SYMATTR InstName Rload
SYMATTR Value 12
SYMBOL voltage -816 176 R0
WINDOW 123 24 138 Left 2
WINDOW 39 24 117 Left 2
SYMATTR Value 6
SYMATTR InstName V2
TEXT 1280 1184 Left 2 !.tran 5m startup
TEXT 856 64 Bottom 2 !K1 L1 L2 1
TEXT 1000 336 Bottom 2 !K2 L3 L4 1
TEXT -448 736 Left 2 ;OPTIONAL LDO
TEXT -312 1176 Left 2 ;Notes: \n  This circuit demonstrates LTC3862-2 ability to work over a wide input voltage range in automotive SEPIC application (DC1891). \n  In this simulation Vin drops to 6V and then rises to 20V; replicating cold cranking and load dump in automotive voltage bus.\n  If the simulation model is not found please update with the "Sync Release" command from the "Tools" menu.\n  It remains the customer's responsibility to verify proper and reliable operation in the actual application.\n  Component substitution and printed circuit board layout may significantly affect circuit performance or reliability.\n  Contact your local sales representative for assistance. This circuit is distributed to customers only for use with LTC parts.\n  Copyright © 2013 Linear Technology Inc.  All rights reserved.
TEXT 400 8 Bottom 2 ;LTC3862-2 - Multi-Phase Current Mode Step-Up DC/DC Controller\nLow Noise PolyPhase SEPIC DC/DC Converter\nInput: 6V to 28V     Output: 12V @ 1A
RECTANGLE Normal -56 768 -496 320 2
