Version 4
SHEET 1 1400 1080
WIRE -448 -384 -736 -384
WIRE -400 -384 -448 -384
WIRE -304 -384 -400 -384
WIRE 896 -384 848 -384
WIRE 992 -384 896 -384
WIRE 1104 -384 992 -384
WIRE -400 -368 -400 -384
WIRE 224 -368 -112 -368
WIRE 512 -368 224 -368
WIRE 896 -368 896 -384
WIRE 1104 -368 1104 -384
WIRE -736 -352 -736 -384
WIRE -304 -352 -304 -384
WIRE 736 -352 128 -352
WIRE 992 -352 992 -384
WIRE 128 -336 128 -352
WIRE 224 -336 224 -368
WIRE 512 -320 512 -368
WIRE -400 -272 -400 -304
WIRE -304 -272 -304 -288
WIRE -192 -272 -208 -272
WIRE -112 -272 -112 -368
WIRE -112 -272 -128 -272
WIRE -96 -272 -112 -272
WIRE 0 -272 -16 -272
WIRE 464 -272 448 -272
WIRE 896 -272 896 -304
WIRE 992 -272 992 -288
WIRE 1104 -272 1104 -288
WIRE -736 -240 -736 -272
WIRE -496 -176 -624 -176
WIRE -400 -176 -496 -176
WIRE -304 -176 -400 -176
WIRE -224 -176 -304 -176
WIRE -112 -176 -112 -272
WIRE 736 -176 736 -352
WIRE 736 -176 592 -176
WIRE 896 -176 736 -176
WIRE 944 -176 896 -176
WIRE 1056 -176 944 -176
WIRE -624 -160 -624 -176
WIRE -400 -160 -400 -176
WIRE -304 -160 -304 -176
WIRE -224 -160 -224 -176
WIRE 592 -160 592 -176
WIRE 736 -160 736 -176
WIRE 944 -160 944 -176
WIRE 1056 -160 1056 -176
WIRE 0 -80 -176 -80
WIRE 544 -80 448 -80
WIRE -624 -64 -624 -80
WIRE -400 -64 -400 -96
WIRE -304 -64 -304 -96
WIRE 736 -64 736 -96
WIRE 944 -64 944 -96
WIRE 1056 -64 1056 -80
WIRE -112 16 -112 -112
WIRE 0 16 -112 16
WIRE 512 16 512 -256
WIRE 512 16 448 16
WIRE -112 32 -112 16
WIRE 512 32 512 16
WIRE -448 112 -448 -384
WIRE -432 112 -448 112
WIRE -336 112 -352 112
WIRE -320 112 -336 112
WIRE -224 112 -224 -64
WIRE -224 112 -240 112
WIRE -112 112 -112 96
WIRE -112 112 -224 112
WIRE 0 112 -112 112
WIRE 512 112 512 96
WIRE 512 112 448 112
WIRE 592 112 592 -64
WIRE 592 112 512 112
WIRE 624 112 592 112
WIRE 736 112 704 112
WIRE 752 112 736 112
WIRE 848 112 848 -384
WIRE 848 112 832 112
WIRE -224 128 -224 112
WIRE 592 128 592 112
WIRE 0 208 -176 208
WIRE 544 208 448 208
WIRE -224 256 -224 224
WIRE 592 256 592 224
WIRE -448 304 -448 112
WIRE 0 304 -448 304
WIRE 848 304 848 112
WIRE 848 304 448 304
WIRE -496 384 -496 -176
WIRE 896 384 896 -176
WIRE -336 400 -336 112
WIRE 0 400 -336 400
WIRE 736 400 736 112
WIRE 736 400 448 400
WIRE -496 496 -496 464
WIRE 0 496 -496 496
WIRE 896 496 896 464
WIRE 896 496 448 496
WIRE -496 512 -496 496
WIRE 896 512 896 496
WIRE -272 592 -304 592
WIRE 0 592 -208 592
WIRE 640 592 448 592
WIRE 736 592 704 592
WIRE -496 608 -496 592
WIRE 896 608 896 592
WIRE -80 688 -96 688
WIRE 0 688 -16 688
WIRE 464 688 448 688
WIRE 544 688 528 688
WIRE 128 768 128 752
WIRE 224 768 224 752
WIRE 320 768 320 752
FLAG -208 -272 0
FLAG 1104 -272 0
FLAG -224 256 0
FLAG -304 -64 0
FLAG -624 -64 0
FLAG -624 -176 OUT1
FLAG 1104 -384 IN2
FLAG -496 608 0
FLAG -96 688 0
FLAG 224 768 0
FLAG 320 768 0
FLAG 128 768 0
FLAG -304 592 0
FLAG 592 256 0
FLAG 736 -64 0
FLAG 1056 -64 0
FLAG 1056 -176 OUT2
FLAG 896 608 0
FLAG 544 688 0
FLAG 736 592 0
FLAG 464 -272 0
FLAG -400 -272 0
FLAG -304 -272 0
FLAG 944 -64 0
FLAG -400 -64 0
FLAG 992 -272 0
FLAG 896 -272 0
FLAG -736 -240 0
FLAG -736 -384 IN1
SYMBOL cap -128 -288 R90
WINDOW 0 0 32 VBottom 2
WINDOW 3 32 32 VTop 2
SYMATTR InstName C1
SYMATTR Value 4.7µ
SYMBOL res -112 -256 R270
WINDOW 0 32 56 VTop 2
WINDOW 3 0 56 VBottom 2
SYMATTR InstName R1
SYMATTR Value 100K
SYMBOL voltage 1104 -384 R0
WINDOW 123 24 126 Left 2
WINDOW 39 24 111 Left 2
SYMATTR InstName V1
SYMATTR Value PWL(0 0 0.1m 6)
SYMBOL res -448 128 R270
WINDOW 0 32 56 VTop 2
WINDOW 3 0 56 VBottom 2
SYMATTR InstName R2
SYMATTR Value 4m
SYMBOL ind -336 128 R270
WINDOW 0 32 56 VTop 2
WINDOW 3 5 56 VBottom 2
SYMATTR InstName L1
SYMATTR Value 3.3µ
SYMBOL nmos -176 -160 M0
WINDOW 0 0 9 Right 2
WINDOW 3 38 119 Right 2
SYMATTR InstName Q1
SYMATTR Value Si4840DY
SYMBOL nmos -176 128 M0
WINDOW 0 -3 31 Right 2
WINDOW 3 34 105 Right 2
SYMATTR InstName Q2
SYMATTR Value Si4840DY
SYMBOL cap -128 32 R0
SYMATTR InstName C2
SYMATTR Value .1µ
SYMBOL schottky -128 -176 R0
SYMATTR InstName D1
SYMATTR Value MBR0540
SYMATTR Description Diode
SYMATTR Type diode
SYMBOL cap -320 -160 R0
WINDOW 3 36 35 Left 2
WINDOW 40 24 58 Left 2
SYMATTR Value 22µ
SYMATTR SpiceLine2 x4
SYMATTR InstName C3
SYMATTR SpiceLine Rser=.003
SYMBOL res -512 496 R0
SYMATTR InstName R3
SYMATTR Value 12.1K
SYMBOL res -512 368 R0
SYMATTR InstName R4
SYMATTR Value 232K
SYMBOL cap -16 672 R90
WINDOW 0 0 32 VBottom 2
WINDOW 3 32 32 VTop 2
SYMATTR InstName C4
SYMATTR Value .01µ
SYMBOL cap -208 576 R90
WINDOW 0 0 32 VBottom 2
WINDOW 3 32 32 VTop 2
WINDOW 39 62 30 VTop 2
SYMATTR InstName C5
SYMATTR Value 15n
SYMATTR SpiceLine Rser=8.66K Cpar=220p
SYMBOL res 848 128 M270
WINDOW 0 32 56 VTop 2
WINDOW 3 0 56 VBottom 2
SYMATTR InstName R5
SYMATTR Value 3m
SYMBOL ind 720 128 M270
WINDOW 0 32 56 VTop 2
WINDOW 3 5 56 VBottom 2
SYMATTR InstName L2
SYMATTR Value 1.25µ
SYMBOL nmos 544 -160 R0
WINDOW 0 57 5 Left 2
WINDOW 3 53 103 Left 2
SYMATTR InstName Q3
SYMATTR Value Si4840DY
SYMBOL nmos 544 128 R0
WINDOW 0 56 35 Left 2
WINDOW 3 59 95 Left 2
SYMATTR InstName Q4
SYMATTR Value Si4840DY
SYMBOL cap 496 32 R0
SYMATTR InstName C6
SYMATTR Value .1µ
SYMBOL cap 720 -160 R0
WINDOW 3 39 31 Left 2
WINDOW 40 24 56 Left 2
SYMATTR Value 22µ
SYMATTR SpiceLine2 x4
SYMATTR InstName C7
SYMATTR SpiceLine Rser=.003
SYMBOL res 880 496 R0
SYMATTR InstName R6
SYMATTR Value 12.1K
SYMBOL res 880 368 R0
SYMATTR InstName R7
SYMATTR Value 110K
SYMBOL cap 464 704 R270
WINDOW 3 0 32 VBottom 2
WINDOW 0 32 32 VTop 2
SYMATTR Value .01µ
SYMATTR InstName C8
SYMBOL cap 640 576 M90
WINDOW 0 0 32 VBottom 2
WINDOW 3 32 32 VTop 2
WINDOW 39 63 31 VTop 2
SYMATTR InstName C9
SYMATTR Value 15n
SYMATTR SpiceLine Rser=2.7K Cpar=100p
SYMBOL schottky 496 -320 R0
SYMATTR InstName D2
SYMATTR Value MBR0540
SYMATTR Description Diode
SYMATTR Type diode
SYMBOL LTC3788-1 224 208 R0
SYMATTR InstName U1
SYMBOL res -640 -176 R0
SYMATTR InstName Rload1
SYMATTR Value 4.8
SYMBOL res 1040 -176 R0
SYMATTR InstName Rload2
SYMATTR Value 1.2
SYMBOL cap -416 -368 R0
WINDOW 3 37 33 Left 2
WINDOW 39 24 55 Left 2
SYMATTR Value 22µ
SYMATTR SpiceLine x4
SYMATTR InstName C10
SYMBOL cap -320 -352 R0
SYMATTR InstName C11
SYMATTR Value 220µ
SYMBOL cap 928 -160 R0
SYMATTR InstName C12
SYMATTR Value 220µ
SYMATTR SpiceLine Rser=.006
SYMBOL cap -416 -160 R0
SYMATTR InstName C13
SYMATTR Value 220µ
SYMATTR SpiceLine Rser=.006
SYMBOL cap 976 -352 R0
SYMATTR InstName C14
SYMATTR Value 220µ
SYMBOL cap 880 -368 R0
WINDOW 3 37 33 Left 2
WINDOW 39 24 55 Left 2
SYMATTR Value 22µ
SYMATTR SpiceLine x4
SYMATTR InstName C15
SYMBOL voltage -736 -368 R0
WINDOW 123 24 126 Left 2
WINDOW 39 24 111 Left 2
SYMATTR InstName V2
SYMATTR Value PWL(0 0 0.1m 15)
TEXT 800 712 Left 2 !.tran 3m
TEXT 272 -400 Bottom 2 ;LTC3788-1 - 2-Phase, Dual Output Synchronous Boost Controller\nHigh Efficiency Dual Boost Regulator with Independent Inputs\nInput1: 12V to 24V     Output1: 24V @ 5A\nInput2: 5V to 12V     Output2: 12V @ 10A
TEXT -360 784 Left 2 ;Notes:\n  SS capacitors have been reduced to speed up simulation time. Typical values should be 0.1µF.\n  If the simulation model is not found please update with the "Sync Release" command from the "Tools" menu.\n  It remains the customer's responsibility to verify proper and reliable operation in the actual application.\n  Component substitution and printed circuit board layout may significantly affect circuit performance or reliability.\n  Contact your local sales representative for assistance. This circuit is distributed to customers only for use with LTC parts.\n  Copyright © 2014 Linear Technology Inc. All rights reserved.
