Version 4
SHEET 1 2188 1188
WIRE 256 -16 -128 -16
WIRE 608 -16 256 -16
WIRE 624 -16 608 -16
WIRE 704 -16 688 -16
WIRE -288 0 -416 0
WIRE -224 0 -288 0
WIRE -48 0 -224 0
WIRE 128 0 -48 0
WIRE 560 0 384 0
WIRE -416 16 -416 0
WIRE -288 16 -288 0
WIRE 128 16 128 0
WIRE 256 16 256 -16
WIRE 384 16 384 0
WIRE -48 64 -48 0
WIRE -32 64 -48 64
WIRE 560 64 560 0
WIRE 560 64 544 64
WIRE 880 64 560 64
WIRE -416 112 -416 96
WIRE -288 112 -288 80
WIRE -128 128 -128 -16
WIRE -32 144 -48 144
WIRE 640 144 544 144
WIRE 752 144 640 144
WIRE 1040 144 832 144
WIRE -32 224 -48 224
WIRE 640 224 640 208
WIRE 640 224 544 224
WIRE 720 224 640 224
WIRE 880 224 880 64
WIRE 880 224 800 224
WIRE 608 240 608 -16
WIRE -224 304 -224 0
WIRE -128 304 -128 192
WIRE -32 304 -128 304
WIRE 608 304 544 304
WIRE 784 304 752 304
WIRE 880 304 880 224
WIRE 880 304 784 304
WIRE 912 304 880 304
WIRE 1008 304 992 304
WIRE 1040 304 1040 144
WIRE 1040 304 1008 304
WIRE 1136 304 1040 304
WIRE 784 320 784 304
WIRE 880 320 880 304
WIRE 1040 320 1040 304
WIRE 1136 320 1136 304
WIRE -32 384 -176 384
WIRE 704 384 544 384
WIRE 784 400 784 384
WIRE 784 400 752 400
WIRE 880 416 880 384
WIRE 1040 416 1040 384
WIRE 1136 416 1136 400
WIRE -256 464 -352 464
WIRE -224 464 -224 400
WIRE -224 464 -256 464
WIRE -128 464 -128 368
WIRE -128 464 -224 464
WIRE -32 464 -128 464
WIRE 608 464 608 368
WIRE 608 464 544 464
WIRE 752 464 752 400
WIRE 752 464 608 464
WIRE 784 464 752 464
WIRE -256 480 -256 464
WIRE -32 544 -176 544
WIRE 704 544 544 544
WIRE -256 560 -256 544
WIRE -224 560 -256 560
WIRE -32 624 -48 624
WIRE 576 624 544 624
WIRE 1008 688 1008 304
WIRE -112 704 -128 704
WIRE -32 704 -48 704
WIRE 560 704 544 704
WIRE 656 704 640 704
WIRE -112 784 -128 784
WIRE -32 784 -48 784
WIRE 1008 784 1008 768
WIRE 1008 784 544 784
WIRE 1008 800 1008 784
WIRE 64 848 64 832
WIRE 448 848 448 832
WIRE 192 880 192 832
WIRE 224 880 192 880
WIRE 320 880 320 832
WIRE 320 880 304 880
WIRE 352 880 320 880
WIRE 1008 896 1008 880
WIRE -224 928 -224 560
WIRE 192 928 192 880
WIRE 192 928 -224 928
WIRE 752 928 752 560
WIRE 752 928 192 928
WIRE -352 976 -352 464
WIRE 224 976 -352 976
WIRE 784 976 784 464
WIRE 784 976 304 976
FLAG -416 112 0
FLAG 880 416 0
FLAG 1008 896 0
FLAG 352 880 0
FLAG 448 848 0
FLAG -128 704 0
FLAG -128 784 0
FLAG 64 848 0
FLAG 1136 416 0
FLAG 656 704 0
FLAG -416 0 IN
FLAG 1136 304 OUT
FLAG 1040 416 0
FLAG -48 624 0
FLAG -288 112 0
FLAG 704 -16 0
FLAG 576 624 0
SYMBOL nmos -176 304 M0
WINDOW 3 43 108 Right 0
WINDOW 0 34 -7 Right 0
SYMATTR Value IRF7831
SYMATTR InstName Q1
SYMBOL schottky 592 240 R0
WINDOW 0 34 7 Left 0
WINDOW 3 38 49 Left 0
SYMATTR InstName D1
SYMATTR Value BAT54
SYMATTR Description Diode
SYMATTR Type diode
SYMBOL schottky -144 128 R0
SYMATTR InstName D2
SYMATTR Value BAT54
SYMATTR Description Diode
SYMATTR Type diode
SYMBOL cap 624 0 R270
WINDOW 0 32 32 VTop 0
WINDOW 3 0 32 VBottom 0
SYMATTR InstName C1
SYMATTR Value 4.7µ
SYMBOL nmos 704 304 R0
WINDOW 3 39 102 Right 0
WINDOW 0 42 -16 Right 0
SYMATTR Value IRF7831
SYMATTR InstName Q2
SYMBOL nmos 704 464 R0
WINDOW 3 36 101 Right 0
WINDOW 0 0 30 Right 0
SYMATTR Value IRF7831
SYMATTR InstName Q3
SYMBOL cap 864 320 R0
SYMATTR InstName C2
SYMATTR Value 10µ
SYMBOL res 992 784 R0
SYMATTR InstName R1
SYMATTR Value 7.5K
SYMBOL res 992 672 R0
SYMATTR InstName R2
SYMATTR Value 105K
SYMBOL res 208 896 R270
WINDOW 0 32 56 VTop 0
WINDOW 3 0 56 VBottom 0
SYMATTR InstName R3
SYMATTR Value 10m
SYMBOL cap -144 304 R0
WINDOW 0 33 18 Left 0
WINDOW 3 29 58 Left 0
SYMATTR InstName C3
SYMATTR Value .1µ
SYMBOL cap 592 304 R0
WINDOW 0 33 18 Left 0
WINDOW 3 29 58 Left 0
SYMATTR InstName C4
SYMATTR Value .1µ
SYMBOL cap -48 688 R90
WINDOW 0 0 32 VBottom 0
WINDOW 3 32 32 VTop 0
SYMATTR InstName C5
SYMATTR Value .001µ
SYMBOL cap -48 768 R90
WINDOW 0 0 32 VBottom 0
WINDOW 3 32 32 VTop 0
WINDOW 39 60 32 VTop 0
WINDOW 40 88 32 VTop 0
SYMATTR InstName C6
SYMATTR Value 0.01µ
SYMATTR SpiceLine Rser=14.7K
SYMATTR SpiceLine2 Cpar=1000p
SYMBOL nmos -176 464 M0
WINDOW 3 38 107 Right 0
WINDOW 0 2 32 Right 0
SYMATTR Value IRF7831
SYMATTR InstName Q4
SYMBOL schottky -240 544 R180
WINDOW 0 32 66 Left 0
WINDOW 3 21 -2 Left 0
SYMATTR InstName D3
SYMATTR Value 1N5817
SYMATTR Description Diode
SYMATTR Type diode
SYMBOL schottky 768 384 M180
WINDOW 0 30 64 Left 0
WINDOW 3 23 1 Left 0
SYMATTR InstName D4
SYMATTR Value 1N5817
SYMATTR Description Diode
SYMATTR Type diode
SYMBOL ind 208 992 R270
WINDOW 0 32 56 VTop 0
WINDOW 3 5 56 VBottom 0
SYMATTR InstName L1
SYMATTR Value 4.7µ
SYMATTR SpiceLine Rpar=1K
SYMBOL PowerProducts\\LTC3789 256 416 R0
SYMATTR InstName U1
SYMBOL res 896 320 R270
WINDOW 0 32 56 VTop 0
WINDOW 3 0 56 VBottom 0
SYMATTR InstName R4
SYMATTR Value 10m
SYMBOL res 544 720 R270
WINDOW 0 32 56 VTop 0
WINDOW 3 0 56 VBottom 0
SYMATTR InstName R5
SYMATTR Value 121K
SYMBOL cap 1024 320 R0
SYMATTR InstName C7
SYMATTR Value 270µ
SYMATTR SpiceLine Rser=75m
SYMBOL res 1120 304 R0
SYMATTR InstName Rload
SYMATTR Value 6
SYMBOL cap -304 16 R0
SYMATTR InstName C8
SYMATTR Value 22µ
SYMBOL voltage -416 0 R0
WINDOW 123 24 146 Left 0
WINDOW 39 24 125 Left 0
SYMATTR InstName V1
SYMATTR Value 15
SYMBOL res 736 160 R270
WINDOW 0 32 56 VTop 0
WINDOW 3 0 56 VBottom 0
SYMATTR InstName R6
SYMATTR Value 100
SYMBOL res 704 240 R270
WINDOW 0 32 56 VTop 0
WINDOW 3 0 56 VBottom 0
SYMATTR InstName R7
SYMATTR Value 100
SYMBOL cap 624 144 R0
WINDOW 0 36 20 Left 0
WINDOW 3 34 51 Left 0
SYMATTR InstName C9
SYMATTR Value 2.2µ
TEXT 832 976 Left 0 !.tran 1m startup
TEXT 312 -48 Bottom 0 ;LTC3789 - High Efficiency, Synchronous, 4-Switch Buck-Boost Controller\n12V Automotive Buck-Boost Solution with Programmable Output Current Limit\nInput: 4V to 38V (40V Max)     Output: 12V @ 4A(5A current limit) fsw = 400kHz
TEXT -448 1000 Left 0 ;Note:\n  If the simulation model is not found please update with the "Sync Release" command from the "Tools" menu.\n  It remains the customer's responsibility to verify proper and reliable operation in the actual application.\n  Component substitution and printed circuit board layout may significantly affect circuit performance or reliability\n  Contact your local sales representative for assistance. This circuit is distributed to customers only for use with LTC parts\n  Copyright © 2011 Linear Technology Inc. All rights reserved.
