Version 4
SHEET 1 1488 1124
WIRE -224 -112 -320 -112
WIRE -128 -112 -224 -112
WIRE 48 -112 -128 -112
WIRE 528 -112 48 -112
WIRE 656 -112 528 -112
WIRE -320 -96 -320 -112
WIRE 528 -96 528 -112
WIRE -224 -80 -224 -112
WIRE -128 -16 -128 -112
WIRE 528 0 528 -16
WIRE 720 0 528 0
WIRE 832 0 784 0
WIRE 896 0 832 0
WIRE 992 0 896 0
WIRE 1088 0 992 0
WIRE -320 16 -320 -16
WIRE -224 16 -224 -16
WIRE 528 16 528 0
WIRE 896 16 896 0
WIRE 992 16 992 0
WIRE 1088 16 1088 0
WIRE 48 32 48 -112
WIRE 192 32 192 16
WIRE 336 32 336 16
WIRE -128 96 -128 64
WIRE -32 96 -128 96
WIRE 480 96 416 96
WIRE -128 112 -128 96
WIRE 896 112 896 80
WIRE 992 112 992 80
WIRE 1088 112 1088 96
WIRE 656 160 656 -112
WIRE 432 192 416 192
WIRE 528 192 528 112
WIRE 528 192 512 192
WIRE 528 208 528 192
WIRE -128 224 -128 192
WIRE -32 288 -48 288
WIRE 432 288 416 288
WIRE 528 304 528 288
WIRE 656 304 656 240
WIRE 720 304 656 304
WIRE 832 304 832 0
WIRE 832 304 784 304
WIRE 608 384 416 384
WIRE -128 480 -144 480
WIRE -32 480 -48 480
WIRE 528 480 416 480
WIRE 656 480 656 400
WIRE 656 480 608 480
WIRE 656 496 656 480
WIRE 832 560 832 304
WIRE -32 576 -48 576
WIRE 432 576 416 576
WIRE 656 592 656 576
WIRE 832 672 832 640
WIRE 832 672 416 672
WIRE 832 688 832 672
WIRE 608 768 416 768
WIRE 832 784 832 768
WIRE -32 864 -48 864
WIRE 432 864 416 864
WIRE 48 944 48 928
WIRE 336 944 336 928
FLAG 48 944 0
FLAG -144 480 0
FLAG 832 784 0
FLAG -128 224 0
FLAG -320 16 0
FLAG 992 112 0
FLAG 1088 112 0
FLAG 528 304 0
FLAG 192 -48 0
FLAG 1088 0 OUT
FLAG 336 944 0
FLAG 496 864 0
FLAG -48 288 0
FLAG -48 576 0
FLAG -48 864 0
FLAG 336 -48 0
FLAG 672 768 0
FLAG 432 288 0
FLAG 432 576 0
FLAG 656 592 0
FLAG -320 -112 IN
FLAG -224 16 0
FLAG 896 112 0
SYMBOL nmos 480 16 R0
WINDOW 3 53 90 Left 2
SYMATTR Value Si7370DP
SYMATTR InstName Q1
SYMBOL ind 512 -112 R0
SYMATTR InstName L1
SYMATTR Value 56µ
SYMATTR SpiceLine Rser=5m Rpar=5K
SYMBOL schottky 720 16 R270
WINDOW 0 32 32 VTop 2
WINDOW 3 0 32 VBottom 2
SYMATTR InstName D1
SYMATTR Value PDS760
SYMATTR Description Diode
SYMATTR Type diode
SYMBOL res -32 464 R90
WINDOW 0 0 56 VBottom 2
WINDOW 3 32 56 VTop 2
SYMATTR InstName R1
SYMATTR Value 45.3K
SYMBOL res 816 544 R0
SYMATTR InstName R2
SYMATTR Value 324K
SYMBOL res 816 672 R0
SYMATTR InstName R3
SYMATTR Value 5.62K
SYMBOL res -144 -32 R0
SYMATTR InstName R4
SYMATTR Value 150K
SYMBOL res -144 96 R0
SYMATTR InstName R5
SYMATTR Value 24.9K
SYMBOL voltage -320 -112 R0
WINDOW 123 0 0 Left 2
WINDOW 39 0 0 Left 2
SYMATTR InstName V1
SYMATTR Value 24
SYMBOL cap 976 16 R0
WINDOW 3 38 32 Left 2
WINDOW 40 24 56 Left 2
SYMATTR Value 47µ
SYMATTR SpiceLine2 x2
SYMATTR InstName C1
SYMATTR SpiceLine Rser=37m
SYMBOL res 512 192 R0
SYMATTR InstName R6
SYMATTR Value 20m
SYMBOL cap 176 -48 R0
WINDOW 0 35 14 Left 2
WINDOW 3 35 59 Left 2
SYMATTR InstName C2
SYMATTR Value 4.7µ
SYMBOL cap 496 848 R90
WINDOW 0 0 32 VBottom 2
WINDOW 3 32 32 VTop 2
SYMATTR InstName C3
SYMATTR Value .001µ
SYMBOL cap 320 -48 R0
WINDOW 0 37 16 Left 2
WINDOW 3 33 58 Left 2
SYMATTR InstName C4
SYMATTR Value .001µ
SYMBOL cap 672 752 R90
WINDOW 0 0 32 VBottom 2
WINDOW 3 32 32 VTop 2
WINDOW 39 59 29 VTop 2
SYMATTR InstName C5
SYMATTR Value 1500p
SYMATTR SpiceLine Rser=45.3K Cpar=100p
SYMBOL ind 640 144 R0
SYMATTR InstName L2
SYMATTR Value 56µ
SYMATTR SpiceLine Rser=5m Rpar=5K
SYMBOL res 640 480 R0
SYMATTR InstName R7
SYMATTR Value 20m
SYMBOL nmos 608 304 R0
WINDOW 3 56 93 Left 2
SYMATTR Value Si7370DP
SYMATTR InstName Q2
SYMBOL schottky 720 320 R270
WINDOW 0 32 32 VTop 2
WINDOW 3 0 32 VBottom 2
SYMATTR InstName D2
SYMATTR Value PDS760
SYMATTR Description Diode
SYMATTR Type diode
SYMBOL PowerProducts\\LTC3862-1 192 432 R0
SYMATTR InstName U1
SYMBOL cap -240 -80 R0
WINDOW 3 38 32 Left 2
WINDOW 40 24 58 Left 2
SYMATTR Value 6.8µ
SYMATTR SpiceLine2 x3
SYMATTR InstName C6
SYMBOL cap 880 16 R0
WINDOW 3 39 31 Left 2
WINDOW 40 26 55 Left 2
SYMATTR Value 2.2µ
SYMATTR SpiceLine2 x6
SYMATTR InstName C7
SYMATTR SpiceLine Rser=10
SYMBOL res 528 176 R90
WINDOW 0 0 56 VBottom 2
WINDOW 3 32 56 VTop 2
SYMATTR InstName R8
SYMATTR Value 10
SYMBOL res 624 464 R90
WINDOW 0 0 56 VBottom 2
WINDOW 3 32 56 VTop 2
SYMATTR InstName R9
SYMATTR Value 10
SYMBOL res 1072 0 R0
SYMATTR InstName Rload
SYMATTR Value 48
TEXT 768 912 Left 2 !.tran 4m startup
TEXT 424 -120 Bottom 2 ;LTC3862-1 - Multi-Phase Current Mode Step-Up DC/DC Controller\n2-Phase Boost Converter for Diesel Fuel Injector Actuator\nInput: 8.5V - 28V     Output: 72V @ 1.5A
TEXT -304 952 Left 2 ;Notes: \n  If the simulation model is not found please update with the "Sync Release" command from the "Tools" menu.\n  It remains the customer's responsibility to verify proper and reliable operation in the actual application.\n  Component substitution and printed circuit board layout may significantly affect circuit performance or reliability.\n  Contact your local sales representative for assistance. This circuit is distributed to customers only for use with LTC parts.\n  Copyright © 2012 Linear Technology Inc.  All rights reserved.
