Version 4
SHEET 1 2732 1236
WIRE -1040 -1504 -1216 -1504
WIRE -896 -1504 -1040 -1504
WIRE -880 -1504 -896 -1504
WIRE -784 -1504 -800 -1504
WIRE -368 -1504 -784 -1504
WIRE -256 -1504 -368 -1504
WIRE -1216 -1488 -1216 -1504
WIRE -256 -1472 -256 -1504
WIRE -896 -1456 -896 -1504
WIRE -784 -1456 -784 -1504
WIRE -1216 -1392 -1216 -1408
WIRE -624 -1392 -672 -1392
WIRE -544 -1392 -624 -1392
WIRE -624 -1376 -624 -1392
WIRE -256 -1376 -256 -1408
WIRE -1040 -1344 -1040 -1504
WIRE -896 -1328 -896 -1376
WIRE -864 -1328 -896 -1328
WIRE -784 -1328 -784 -1376
WIRE -784 -1328 -800 -1328
WIRE -544 -1312 -544 -1392
WIRE -624 -1296 -624 -1312
WIRE -368 -1280 -368 -1504
WIRE -896 -1264 -896 -1328
WIRE -784 -1264 -784 -1328
WIRE -672 -1264 -672 -1392
WIRE -1136 -1200 -1168 -1200
WIRE -1040 -1200 -1040 -1264
WIRE -1040 -1200 -1072 -1200
WIRE -992 -1200 -1040 -1200
WIRE -416 -1200 -576 -1200
WIRE -1104 -1104 -1136 -1104
WIRE -992 -1104 -1024 -1104
WIRE -544 -1104 -544 -1248
WIRE -544 -1104 -576 -1104
WIRE -496 -1104 -544 -1104
WIRE -368 -1104 -368 -1184
WIRE -368 -1104 -432 -1104
WIRE -1136 -1008 -1136 -1104
WIRE -1104 -1008 -1136 -1008
WIRE -992 -1008 -1024 -1008
WIRE -368 -1008 -368 -1104
WIRE -368 -1008 -576 -1008
WIRE -336 -1008 -368 -1008
WIRE -272 -1008 -336 -1008
WIRE -128 -1008 -192 -1008
WIRE -48 -1008 -128 -1008
WIRE 64 -1008 -48 -1008
WIRE -368 -992 -368 -1008
WIRE 64 -992 64 -1008
WIRE -48 -976 -48 -1008
WIRE -48 -976 -96 -976
WIRE -48 -960 -48 -976
WIRE -1136 -912 -1136 -1008
WIRE -1104 -912 -1136 -912
WIRE -992 -912 -1024 -912
WIRE -416 -912 -576 -912
WIRE 64 -896 64 -912
WIRE -48 -880 -48 -896
WIRE -48 -880 -80 -880
WIRE -368 -864 -368 -896
WIRE -48 -848 -48 -880
WIRE -1232 -816 -1264 -816
WIRE -1136 -816 -1136 -912
WIRE -1136 -816 -1168 -816
WIRE -1040 -816 -1136 -816
WIRE -992 -816 -1040 -816
WIRE -544 -816 -576 -816
WIRE -1264 -720 -1344 -720
WIRE -1104 -720 -1264 -720
WIRE -1040 -720 -1104 -720
WIRE -992 -720 -1040 -720
WIRE -512 -720 -576 -720
WIRE -464 -720 -512 -720
WIRE -336 -720 -336 -1008
WIRE -336 -720 -384 -720
WIRE -240 -720 -272 -720
WIRE -128 -720 -128 -1008
WIRE -128 -720 -176 -720
WIRE -1344 -704 -1344 -720
WIRE -512 -704 -512 -720
WIRE -1264 -688 -1264 -720
WIRE -1344 -624 -1344 -640
WIRE -992 -624 -1136 -624
WIRE -512 -624 -512 -640
WIRE -512 -624 -576 -624
WIRE -272 -624 -272 -720
WIRE -272 -624 -512 -624
WIRE -240 -624 -272 -624
WIRE -128 -624 -128 -720
WIRE -128 -624 -160 -624
WIRE -1264 -592 -1264 -608
WIRE -1136 -592 -1136 -624
WIRE -1136 -592 -1264 -592
WIRE -1264 -560 -1264 -592
WIRE -1104 -544 -1104 -720
WIRE -992 -528 -1008 -528
WIRE -96 -528 -96 -976
WIRE -96 -528 -576 -528
WIRE -1264 -448 -1264 -480
WIRE -1104 -432 -1104 -464
WIRE -992 -432 -1104 -432
WIRE -80 -432 -80 -880
WIRE -80 -432 -576 -432
WIRE -1104 -400 -1104 -432
WIRE -848 -336 -848 -368
WIRE -720 -320 -720 -368
WIRE -1104 -304 -1104 -320
WIRE -720 -240 -720 -256
FLAG -624 -1296 0
FLAG -1216 -1504 IN
FLAG -1216 -1392 0
FLAG -720 -240 0
FLAG -48 -848 0
FLAG 64 -896 0
FLAG 64 -1008 OUT0
FLAG -544 -816 0
FLAG -368 -864 0
FLAG -848 -336 0
FLAG -1264 -816 0
FLAG -1344 -624 0
FLAG -1040 -720 VDD25
FLAG -1040 -816 VDD33
FLAG -1168 -1200 0
FLAG -256 -1376 0
FLAG -1264 -448 0
FLAG -1104 -304 0
FLAG -1008 -528 0
SYMBOL voltage -1216 -1504 R0
WINDOW 123 0 0 Left 2
WINDOW 39 0 0 Left 2
SYMATTR InstName V1
SYMATTR Value 12
SYMBOL cap -640 -1312 M180
WINDOW 0 24 56 Left 2
WINDOW 3 24 8 Left 2
SYMATTR InstName C1
SYMATTR Value 1µ
SYMBOL nmos -416 -1280 R0
SYMATTR InstName Q3
SYMATTR Value BSC050NE2LS
SYMBOL nmos -416 -992 R0
WINDOW 0 -3 20 Right 2
WINDOW 3 28 103 Right 2
SYMATTR InstName Q4
SYMATTR Value BSC010NE2LSI
SYMBOL ind -288 -992 R270
WINDOW 0 32 56 VTop 2
WINDOW 3 5 56 VBottom 2
SYMATTR InstName L2
SYMATTR Value 0.56µ
SYMATTR SpiceLine Rser=1.8m
SYMBOL cap -496 -1120 M90
WINDOW 0 0 32 VBottom 2
WINDOW 3 32 32 VTop 2
SYMATTR InstName C7
SYMATTR Value .1µ
SYMBOL schottky -560 -1312 R0
SYMATTR Value CMDSH2-3
SYMATTR InstName D2
SYMATTR Description Diode
SYMATTR Type diode
SYMBOL cap -528 -704 R0
SYMATTR InstName C8
SYMATTR Value .22µ
SYMBOL res -368 -704 M270
WINDOW 0 32 56 VTop 2
WINDOW 3 0 56 VBottom 2
SYMATTR InstName R10
SYMATTR Value 1.4K
SYMBOL cap -64 -960 R0
SYMATTR InstName C9
SYMATTR Value 860µ
SYMATTR SpiceLine Rser=3m
SYMBOL res -144 -640 R90
WINDOW 0 0 56 VBottom 2
WINDOW 3 32 56 VTop 2
SYMATTR InstName R13
SYMATTR Value 1.4K
SYMBOL cap -176 -736 R90
WINDOW 0 0 32 VBottom 2
WINDOW 3 32 32 VTop 2
SYMATTR InstName C13
SYMATTR Value 2.2µ
SYMBOL res 48 -1008 R0
SYMATTR InstName Rload0
SYMATTR Value .09
SYMBOL LTC3883 -784 -816 R0
SYMATTR InstName U1
SYMATTR SpiceLine VIN_ON=5.5 VIN_OFF=5 Vout=1.8 Ilim_range=1 OC_limit=1  Mode_ll=2 Fault_response=0 Retry_delay=.1m
SYMATTR SpiceLine2 Freq=425K PHs=0 Ton_delay=.3m Ton_rise=.5m Toff_delay=.2m Toff_fall=.3m  Vout_range=0
SYMBOL cap -1168 -832 R90
WINDOW 0 0 32 VBottom 2
WINDOW 3 32 32 VTop 2
SYMATTR InstName C2
SYMATTR Value 1µ
SYMBOL cap -1360 -704 R0
SYMATTR InstName C3
SYMATTR Value 1µ
SYMBOL res -1008 -896 M270
WINDOW 0 32 56 VTop 2
WINDOW 3 0 56 VBottom 2
SYMATTR InstName R1
SYMATTR Value 10K
SYMBOL res -1008 -992 M270
WINDOW 0 32 56 VTop 2
WINDOW 3 0 56 VBottom 2
SYMATTR InstName R2
SYMATTR Value 10K
SYMBOL res -1008 -1088 M270
WINDOW 0 32 56 VTop 2
WINDOW 3 0 56 VBottom 2
SYMATTR InstName R3
SYMATTR Value 10K
SYMBOL res -896 -1520 M90
WINDOW 0 0 56 VBottom 2
WINDOW 3 32 56 VTop 2
SYMATTR InstName R4
SYMATTR Value 0.005
SYMBOL res -1056 -1248 M180
WINDOW 0 36 76 Left 2
WINDOW 3 36 40 Left 2
SYMATTR InstName R5
SYMATTR Value 3
SYMBOL res -912 -1360 M180
WINDOW 0 36 76 Left 2
WINDOW 3 36 40 Left 2
SYMATTR InstName R6
SYMATTR Value 100
SYMBOL res -800 -1360 M180
WINDOW 0 36 76 Left 2
WINDOW 3 36 40 Left 2
SYMATTR InstName R7
SYMATTR Value 100
SYMBOL cap -800 -1344 R90
WINDOW 0 0 32 VBottom 2
WINDOW 3 32 32 VTop 2
SYMATTR InstName C5
SYMATTR Value 1µ
SYMBOL cap -1136 -1184 R270
WINDOW 0 32 32 VTop 2
WINDOW 3 0 32 VBottom 2
SYMATTR InstName C10
SYMATTR Value 10µ
SYMBOL cap -272 -1472 R0
SYMATTR InstName C4
SYMATTR Value 22µ
SYMBOL res -1280 -592 M180
WINDOW 0 36 76 Left 2
WINDOW 3 36 40 Left 2
SYMATTR InstName R8
SYMATTR Value 24.9K
SYMBOL res -1280 -464 M180
WINDOW 0 36 76 Left 2
WINDOW 3 36 40 Left 2
SYMATTR InstName R9
SYMATTR Value 11.3K
SYMBOL res -1120 -448 M180
WINDOW 0 36 76 Left 2
WINDOW 3 36 40 Left 2
SYMATTR InstName R14
SYMATTR Value 16.2K
SYMBOL res -1120 -304 M180
WINDOW 0 36 76 Left 2
WINDOW 3 36 40 Left 2
SYMATTR InstName R15
SYMATTR Value 17.4K
SYMBOL cap -736 -320 R0
SYMATTR InstName C6
SYMATTR Value 2.2n
SYMATTR SpiceLine Rser=15k Cpar=100p
TEXT -96 -344 Left 2 !.tran 1.5m startup
TEXT 240 -1288 Left 1 ;Please read the following notes carefully, since the model presents different user interface\nthan the real part does.\n \n(1) All PMBus communication and memory address related functions and pins are not modeled. \n \n(2) Changes to all parameter values during the simulation running will not be in effect, unless the\nsimulation is stopped and restarted. This is different from the operation of the part, which will\n respond to the commanded changes while running. \n \n(3) Share_clk is not modeled. The default time reference of LTspice is used as the common time \nbase for all time related parameters.\n \n(4) The following parameters can be defined, by right-clicking the symbol of LTC3880. Different \nnomenclature from the datasheet is adopted here. If any value of these parameters are set beyond \nthe scope discribed in the datasheet, the resulting simulation outcomes are not meaningful.\n \n     VIN_ON & VIN_OFF -- in volts, set the unit start/stop input voltages;\n     Freq -- in Hz, sets switching frequency as one of values of 250K, 350K, \n                425K, 500K, 575K, 650K, 750K, 1000K. FREQ_CFG pin needs to float \n                (or short to VDD25), to make the value be in effect;\n     Ton_delay & Ton_rise; -- in sec, set delay and soft-start timers for \n                channel0 and channel1. Initialization time is not modeled;\n     Toff_delay & Toff_fall; -- in sec, set delay and soft-off timers for \n                channel0 and channel1;\n     Vout -- in volt, set output voltages respectively;\n     Vout_range -- set maximum output range, with value 0\n                                                      for 5.5V (CH1); value 1\n                                                      for 2.75V\n     Ilim_range -- set maximum sensed peak current range, with value 0\n                           for low 50mV, and 1 for high 75mV;\n     OC_limit -- set ratio of peak current limit to the maximum value defined\n                      by Ilimit_range. It must be one of values: 0.5, 0.572, 0.642, \n                      0.714, 0.786, 0.858, 0.928, 1;\n     Mode_II -- sets light load operation mode: 0 for discontinuous, 1 for Burst,\n                      2 for forced continuous;\n     Fault_response -- sets the response mode of the unit to occuring faults:\n                                 0 for ignore, 1 for latch up, 2 for Hiccup after Retry_delay time;\n     Retry_delay -- in sec, sets the timer before the unit turns on after a fault;
TEXT -696 -1568 Bottom 2 ;LTC3883 - SinglePhase Step-Down DC/DC Controller with Digital Power System Management\nHigh Efficiency 425kHz 1.8V Step-Down Converter with DCR Sense\nInput: 6V to 24V     Output: 1.8V @ 20A
TEXT 240 -544 Left 1 ;Notes: \n  If the simulation model is not found please update with the "Sync Release" command from the "Tools" menu.\n  It remains the customer's responsibility to verify proper and reliable operation in the actual application.\n  Component substitution and printed circuit board layout may significantly affect circuit performance or reliability.\n  Contact your local sales representative for assistance. This circuit is distributed to customers only for use with LTC parts.\n  Copyright ?2012 Linear Technology Inc.  All rights reserved.
TEXT 64 -1048 Center 2 ;1.8V @ 20A
