Version 4
SHEET 1 1292 680
WIRE -64 80 -160 80
WIRE 16 80 -64 80
WIRE 112 80 16 80
WIRE 352 80 336 80
WIRE 448 80 432 80
WIRE 592 80 448 80
WIRE 720 80 592 80
WIRE -160 96 -160 80
WIRE -64 96 -64 80
WIRE 16 96 16 80
WIRE 592 96 592 80
WIRE 720 96 720 80
WIRE 112 176 16 176
WIRE 448 176 448 160
WIRE 448 176 336 176
WIRE -160 192 -160 176
WIRE -64 192 -64 160
WIRE 448 192 448 176
WIRE 592 192 592 160
WIRE 720 192 720 176
WIRE 112 272 96 272
WIRE 384 272 336 272
WIRE 384 288 384 272
WIRE 448 288 448 272
WIRE 384 368 384 352
WIRE 384 368 336 368
WIRE 384 400 384 368
FLAG -160 192 0
FLAG 384 400 0
FLAG 448 288 0
FLAG 592 192 0
FLAG 720 192 0
FLAG -160 80 IN
FLAG 720 80 OUT
FLAG -64 192 0
FLAG 96 272 0
SYMBOL voltage -160 80 R0
WINDOW 123 0 0 Left 0
WINDOW 39 0 0 Left 0
SYMATTR InstName V1
SYMATTR Value 20
SYMBOL ind 336 96 R270
WINDOW 0 32 56 VTop 0
WINDOW 3 5 56 VBottom 0
SYMATTR InstName L1
SYMATTR Value 100µ
SYMATTR SpiceLine Rser=0.43
SYMBOL res 432 64 R0
SYMATTR InstName R1
SYMATTR Value 1.47Meg
SYMBOL res 432 176 R0
SYMATTR InstName R2
SYMATTR Value 280K
SYMBOL cap 576 96 R0
WINDOW 3 39 34 Left 0
WINDOW 39 31 66 Left 0
SYMATTR InstName C1
SYMATTR Value 47µ
SYMATTR SpiceLine x2
SYMBOL cap -80 96 R0
SYMATTR InstName C2
SYMATTR Value 4.7µ
SYMBOL res 0 80 R0
SYMATTR InstName R3
SYMATTR Value 2Meg
SYMBOL cap 368 288 R0
SYMATTR InstName C3
SYMATTR Value 47n
SYMBOL current 720 96 R0
WINDOW 123 24 130 Left 0
WINDOW 39 24 109 Left 0
SYMATTR Value PULSE(5m 100m 12m 1n 1n 1m 2m)
SYMATTR InstName I1
SYMBOL PowerProducts\\LTC3631 224 224 R0
SYMATTR InstName U1
TEXT 512 384 Left 0 !.tran 20m startup
TEXT 320 -8 Bottom 0 ;LTC3631 Design - High Efficiency, High Voltage 100mA Synchronous Step Down Converter\nInput: 4.5 to 45V    Output: 5V @ 100mA Component values selected similar to DC1499A
TEXT -328 416 Left 0 ;Note:\n  If the simulation model is not found please update with the "Sync Release" command from the "Tools" menu.\n  It remains the customer's responsibility to verify proper and reliable operation in the actual application.\n  Component substitution and printed circuit board layout may significantly affect circuit performance or reliability.\n  Contact your local sales representative for assistance. This circuit is distributed to customers only for use with LTC parts.\n  Copyright © 2009 Linear Technology Inc. All rights reserved.
