Version 4
SHEET 1 1564 980
WIRE 224 -192 224 -208
WIRE -208 -176 -304 -176
WIRE -128 -176 -208 -176
WIRE -48 -176 -128 -176
WIRE 112 -176 -48 -176
WIRE -304 -160 -304 -176
WIRE -208 -160 -208 -176
WIRE -128 -160 -128 -176
WIRE 16 -112 -16 -112
WIRE 224 -112 224 -128
WIRE 224 -112 96 -112
WIRE 624 -80 336 -80
WIRE -304 -64 -304 -80
WIRE -208 -64 -208 -96
WIRE -128 -64 -128 -96
WIRE 112 -48 112 -176
WIRE 224 -48 224 -112
WIRE 336 -48 336 -80
WIRE -16 16 -16 -112
WIRE 16 16 -16 16
WIRE 624 16 624 -80
WIRE 624 16 432 16
WIRE -48 112 -48 -176
WIRE 16 112 -48 112
WIRE 464 112 432 112
WIRE 464 128 464 112
WIRE 464 208 464 192
WIRE 464 208 432 208
WIRE 512 208 464 208
WIRE 624 208 624 16
WIRE 624 208 592 208
WIRE 720 208 624 208
WIRE 816 208 720 208
WIRE 624 224 624 208
WIRE 720 224 720 208
WIRE 816 224 816 208
WIRE -80 304 -96 304
WIRE 16 304 0 304
WIRE 464 304 432 304
WIRE 624 320 624 288
WIRE 720 320 720 288
WIRE 816 320 816 304
WIRE 16 400 0 400
WIRE 480 400 432 400
WIRE 576 400 480 400
WIRE 480 416 480 400
WIRE 576 416 576 400
WIRE 96 480 96 464
WIRE 352 480 352 464
WIRE 480 512 480 496
WIRE 576 512 576 480
WIRE 64 560 16 560
WIRE 176 560 176 464
WIRE 176 560 144 560
WIRE 272 560 272 464
WIRE 384 560 272 560
WIRE 496 560 384 560
WIRE 16 576 16 560
WIRE 176 576 176 560
WIRE 272 576 272 560
WIRE 496 576 496 560
WIRE 384 592 384 560
WIRE 16 672 16 640
WIRE 176 672 176 640
WIRE 272 672 272 656
WIRE 384 672 384 656
WIRE 496 672 496 656
FLAG 96 480 0
FLAG 272 672 0
FLAG 384 672 0
FLAG -96 304 0
FLAG 0 400 0
FLAG -304 -64 0
FLAG 224 -208 0
FLAG 352 480 0
FLAG 480 512 0
FLAG 576 512 0
FLAG 464 304 0
FLAG 624 320 0
FLAG 816 320 0
FLAG 816 208 OUT
FLAG -304 -176 IN
FLAG 720 320 0
FLAG -208 -64 0
FLAG -128 -64 0
FLAG 16 672 0
FLAG 176 672 0
FLAG 496 672 0
FLAG 496 560 CTRL
SYMBOL PowerProducts\\LTC3649 224 208 R0
SYMATTR InstName U1
SYMBOL res 256 560 R0
SYMATTR InstName R1
SYMATTR Value 10K
SYMBOL cap 368 592 R0
SYMATTR InstName C1
SYMATTR Value 1n
SYMBOL res 16 288 R90
WINDOW 0 0 56 VBottom 2
WINDOW 3 32 56 VTop 2
SYMATTR InstName R2
SYMATTR Value 200K
SYMBOL VOLTAGE -304 -176 R0
WINDOW 123 24 138 Left 2
WINDOW 39 24 117 Left 2
SYMATTR InstName V1
SYMATTR Value 24
SYMBOL cap 208 -192 R0
SYMATTR InstName C2
SYMATTR Value 2.2µ
SYMATTR SpiceLine Rser=10m
SYMBOL res 464 400 R0
SYMATTR InstName R3
SYMATTR Value 10K
SYMBOL cap 560 416 R0
SYMATTR InstName C3
SYMATTR Value 10n
SYMBOL ind 496 224 R270
WINDOW 0 32 56 VTop 2
WINDOW 3 5 56 VBottom 2
SYMATTR InstName L1
SYMATTR Value 5.6µ
SYMATTR SpiceLine Rser=10m
SYMBOL cap 448 128 R0
SYMATTR InstName C4
SYMATTR Value .1µ
SYMBOL cap 608 224 R0
WINDOW 123 27 58 Left 2
WINDOW 3 36 34 Left 2
SYMATTR Value2 x2
SYMATTR Value 22µ
SYMATTR InstName C5
SYMATTR SpiceLine Rser=20m
SYMBOL polcap 704 224 R0
SYMATTR InstName C6
SYMATTR Value 150µ
SYMATTR SpiceLine Rser=20m
SYMBOL polcap -224 -160 R0
SYMATTR InstName C7
SYMATTR Value 10µ
SYMATTR SpiceLine Rser=20m
SYMBOL cap -144 -160 R0
WINDOW 123 27 58 Left 2
WINDOW 3 36 34 Left 2
SYMATTR Value2 x2
SYMATTR Value 10µ
SYMATTR InstName C8
SYMATTR SpiceLine Rser=20m
SYMBOL cap 0 576 R0
SYMATTR Value 4.7n
SYMATTR InstName C9
SYMBOL res 160 544 R90
WINDOW 0 0 56 VBottom 2
WINDOW 3 32 56 VTop 2
SYMATTR InstName R4
SYMATTR Value 1K
SYMBOL cap 160 576 R0
SYMATTR InstName C10
SYMATTR Value 10p
SYMBOL res 112 -128 R90
WINDOW 0 0 56 VBottom 2
WINDOW 3 32 56 VTop 2
SYMATTR InstName R5
SYMATTR Value 10K
SYMBOL voltage 496 560 R0
WINDOW 123 24 117 Left 2
SYMATTR Value2 +1.25m 7.5 +1m 2.5)
SYMATTR Value PWL(0 0 +0.25m 5 +0.25m 5
SYMATTR InstName V2
SYMBOL res 800 208 R0
SYMATTR InstName Rload
SYMATTR Value 2
TEXT 720 568 Left 2 !.tran 3m startup
TEXT -384 704 Left 2 ;Notes:\n  If the simulation model is not found please update with the "Sync Release" command from the "Tools" menu.\n  It remains the customer's responsibility to verify proper and reliable operation in the actual application.\n  Component substitution and printed circuit board layout may significantly affect circuit performance or reliability.\n  Contact your local sales representative for assistance. This circuit is distributed to customers only for use with LTC parts.\n  Copyright © 2016 Linear Technology Inc. All rights reserved.
TEXT 192 -304 Center 2 ;LTC3649 - 60V, 4A Synchronous Step-Down Regulator with Rail-to-Rail \nHigh Voltage Monolithic Synchronous Buck Regulator with Output Voltage Control\nInput: 10V to 60V     Output: 2.5V to 7.5V @ 4A
