Version 4
SHEET 1 1324 924
WIRE -64 96 -176 96
WIRE 32 96 -64 96
WIRE 112 96 32 96
WIRE 256 96 112 96
WIRE -176 112 -176 96
WIRE -64 112 -64 96
WIRE 32 112 32 96
WIRE 256 112 256 96
WIRE 112 160 112 96
WIRE 128 160 112 160
WIRE 512 160 384 160
WIRE 672 160 592 160
WIRE -176 208 -176 192
WIRE -64 208 -64 176
WIRE 32 208 32 176
WIRE 128 256 112 256
WIRE 416 256 384 256
WIRE 544 256 496 256
WIRE 672 256 672 160
WIRE 672 256 544 256
WIRE 784 256 672 256
WIRE 880 256 784 256
WIRE 672 272 672 256
WIRE 784 272 784 256
WIRE 880 272 880 256
WIRE 128 352 112 352
WIRE 544 352 544 336
WIRE 544 352 384 352
WIRE 672 352 672 336
WIRE 672 352 544 352
WIRE 544 368 544 352
WIRE 784 368 784 336
WIRE 880 368 880 352
WIRE 544 464 544 448
FLAG -176 208 0
FLAG 112 256 0
FLAG 112 352 0
FLAG 544 464 0
FLAG 784 368 0
FLAG 880 368 0
FLAG -176 96 IN
FLAG 880 256 OUT
FLAG 32 208 0
FLAG -64 208 0
SYMBOL LTC3620 256 256 R0
SYMATTR InstName U1
SYMBOL voltage -176 96 R0
SYMATTR InstName V1
SYMATTR Value 3.3
SYMBOL ind 400 272 R270
WINDOW 0 32 56 VTop 0
WINDOW 3 5 56 VBottom 0
SYMATTR InstName L1
SYMATTR Value 22µ
SYMATTR SpiceLine Rser=1.2 Rpar=100k
SYMBOL res 528 240 R0
SYMATTR InstName R1
SYMATTR Value 1370K
SYMBOL res 528 352 R0
SYMATTR InstName R2
SYMATTR Value 681K
SYMBOL cap 656 272 R0
SYMATTR InstName C1
SYMATTR Value 22p
SYMATTR SpiceLine Rser=10
SYMBOL cap 768 272 R0
SYMATTR InstName C2
SYMATTR Value 1µ
SYMATTR SpiceLine Rser=20m
SYMBOL res 496 176 R270
WINDOW 0 32 56 VTop 0
WINDOW 3 0 56 VBottom 0
SYMATTR InstName R3
SYMATTR Value 715K
SYMBOL cap 16 112 R0
SYMATTR InstName C3
SYMATTR Value 1µ
SYMATTR SpiceLine Rser=20m
SYMBOL cap -80 112 R0
SYMATTR InstName C4
SYMATTR Value 10µ
SYMATTR SpiceLine Rser=2.2
SYMBOL res 864 256 R0
SYMATTR InstName Rload
SYMATTR Value 180
TEXT 720 440 Left 0 !.tran 1m startup
TEXT -280 488 Left 0 ;Note:\n  If the simulation model is not found please update with the "Sync Release" command from the "Tools" menu.\n  It remains the customer's responsibility to verify proper and reliable operation in the actual application.\n  Component substitution and printed circuit board layout may significantly affect circuit performance or reliability\n  Contact your local sales representative for assistance. This circuit is distributed to customers only for use with LTC parts\n  Copyright © 2011 Linear Technology Inc. All rights reserved.
TEXT 344 72 Bottom 0 ;LTC3620 - Ultralow Power 15mA Synchronous Step-Down Switching Regulator\nLTC3620 in a typical Power Converter application - DC1460A\nInput: 2.8V to 5.5V      Output: 1.8V @ 15mA
