Version 4
SHEET 1 1084 1672
WIRE -1408 176 -1520 176
WIRE -1312 176 -1408 176
WIRE -880 176 -1312 176
WIRE -224 176 -880 176
WIRE -1520 192 -1520 176
WIRE -1408 192 -1408 176
WIRE -784 192 -1104 192
WIRE -448 192 -784 192
WIRE -1312 224 -1312 176
WIRE -880 224 -880 176
WIRE -784 224 -784 192
WIRE -224 224 -224 176
WIRE -1520 288 -1520 272
WIRE -1408 288 -1408 256
WIRE -960 304 -1264 304
WIRE -272 304 -512 304
WIRE -1104 320 -1104 192
WIRE -448 320 -448 192
WIRE -1104 400 -1104 384
WIRE -960 400 -1104 400
WIRE -448 400 -448 384
WIRE -448 400 -512 400
WIRE -1104 416 -1104 400
WIRE -448 416 -448 400
WIRE -1760 496 -1888 496
WIRE -1648 496 -1760 496
WIRE -1568 496 -1648 496
WIRE -1520 496 -1568 496
WIRE -1488 496 -1520 496
WIRE -1376 496 -1408 496
WIRE -1312 496 -1312 320
WIRE -1312 496 -1376 496
WIRE -1104 496 -1104 480
WIRE -1104 496 -1312 496
WIRE -960 496 -1104 496
WIRE -448 496 -448 480
WIRE -448 496 -512 496
WIRE -224 496 -224 320
WIRE -224 496 -448 496
WIRE -160 496 -224 496
WIRE -128 496 -160 496
WIRE -16 496 -48 496
WIRE 32 496 -16 496
WIRE 80 496 32 496
WIRE 176 496 80 496
WIRE 288 496 176 496
WIRE -1888 512 -1888 496
WIRE -1760 512 -1760 496
WIRE -1648 512 -1648 496
WIRE -1312 512 -1312 496
WIRE -224 512 -224 496
WIRE 80 512 80 496
WIRE 176 512 176 496
WIRE 288 512 288 496
WIRE -960 592 -1264 592
WIRE -272 592 -512 592
WIRE -1888 608 -1888 592
WIRE -1760 608 -1760 576
WIRE -1648 608 -1648 576
WIRE 80 608 80 576
WIRE 176 608 176 576
WIRE 288 608 288 592
WIRE -1312 624 -1312 608
WIRE -224 624 -224 608
WIRE -1376 688 -1376 496
WIRE -1152 688 -1376 688
WIRE -1040 688 -1072 688
WIRE -960 688 -1040 688
WIRE -480 688 -512 688
WIRE -400 688 -480 688
WIRE -160 688 -160 496
WIRE -160 688 -320 688
WIRE -1040 704 -1040 688
WIRE -480 704 -480 688
WIRE -1568 784 -1568 496
WIRE -1520 784 -1520 496
WIRE -1040 784 -1040 768
WIRE -1040 784 -1520 784
WIRE -960 784 -1040 784
WIRE -480 784 -480 768
WIRE -480 784 -512 784
WIRE -16 784 -16 496
WIRE -16 784 -480 784
WIRE 32 784 32 496
WIRE -1568 880 -1568 864
WIRE -960 880 -1568 880
WIRE 32 880 32 864
WIRE 32 880 -512 880
WIRE -1568 896 -1568 880
WIRE 32 896 32 880
WIRE -1248 976 -1296 976
WIRE -1136 976 -1168 976
WIRE -960 976 -1136 976
WIRE -368 976 -512 976
WIRE -304 976 -368 976
WIRE -192 976 -224 976
WIRE -1568 992 -1568 976
WIRE -1296 992 -1296 976
WIRE -1136 992 -1136 976
WIRE -368 992 -368 976
WIRE -192 992 -192 976
WIRE 32 992 32 976
WIRE -1296 1072 -1296 1056
WIRE -1136 1072 -1136 1056
WIRE -1040 1072 -1056 1072
WIRE -960 1072 -976 1072
WIRE -496 1072 -512 1072
WIRE -416 1072 -432 1072
WIRE -368 1072 -368 1056
WIRE -192 1072 -192 1056
WIRE -496 1264 -512 1264
WIRE -400 1264 -416 1264
WIRE -880 1360 -880 1344
WIRE -736 1360 -736 1344
WIRE -592 1360 -592 1344
FLAG -1520 288 0
FLAG -1408 288 0
FLAG -1312 624 0
FLAG -1648 608 0
FLAG -1760 608 0
FLAG -1888 496 OUT1
FLAG -1568 992 0
FLAG -1296 1072 0
FLAG -1056 1072 0
FLAG -880 1360 0
FLAG -736 1360 0
FLAG -592 1360 0
FLAG -400 1264 0
FLAG -416 1072 0
FLAG -224 624 0
FLAG 80 608 0
FLAG 176 608 0
FLAG 288 496 OUT2
FLAG 32 992 0
FLAG -192 1072 0
FLAG -1888 608 0
FLAG 288 608 0
FLAG -368 1072 0
FLAG -1136 1072 0
FLAG -1520 176 IN
SYMBOL voltage -1520 176 R0
SYMATTR InstName V1
SYMATTR Value 12
SYMBOL cap -1424 192 R0
WINDOW 3 38 34 Left 2
WINDOW 123 26 59 Left 2
SYMATTR Value 10µ
SYMATTR Value2 x2
SYMATTR InstName C1
SYMATTR SpiceLine Rser=5m
SYMBOL nmos -1264 224 M0
WINDOW 0 -1 21 Right 2
WINDOW 3 -4 63 Right 2
SYMATTR InstName Q1
SYMATTR Value RJK0305DPB
SYMBOL nmos -1264 512 M0
WINDOW 0 -1 19 Right 2
WINDOW 3 -2 57 Right 2
SYMATTR InstName Q2
SYMATTR Value RJK0301DPB
SYMBOL schottky -1120 320 R0
SYMATTR InstName D1
SYMATTR Value CMDSH2-3
SYMATTR Description Diode
SYMATTR Type diode
SYMBOL cap -1120 416 R0
SYMATTR InstName C2
SYMATTR Value .1µ
SYMBOL ind -1392 512 M270
WINDOW 0 32 56 VTop 2
WINDOW 3 5 56 VBottom 2
SYMATTR InstName L1
SYMATTR Value 0.56µ
SYMATTR SpiceLine Rser=1.8m
SYMBOL cap -1664 512 R0
SYMATTR InstName C3
SYMATTR Value 100µ
SYMATTR SpiceLine Rser=2m
SYMBOL res -1168 672 M90
WINDOW 0 0 56 VBottom 2
WINDOW 3 32 56 VTop 2
SYMATTR InstName R1
SYMATTR Value 1.58K
SYMBOL cap -1056 704 R0
SYMATTR InstName C4
SYMATTR Value 220n
SYMBOL res -1584 768 R0
SYMATTR InstName R2
SYMATTR Value 30.1K
SYMBOL res -1584 880 R0
SYMATTR InstName R3
SYMATTR Value 20K
SYMBOL cap -1312 992 R0
SYMATTR InstName C5
SYMATTR Value 1.5n
SYMBOL res -1152 960 R90
WINDOW 0 0 56 VBottom 2
WINDOW 3 32 56 VTop 2
SYMATTR InstName R4
SYMATTR Value 5.9K
SYMBOL cap -1152 992 R0
SYMATTR InstName C6
SYMATTR Value 100p
SYMBOL cap -976 1056 R90
WINDOW 0 0 32 VBottom 2
WINDOW 3 32 32 VTop 2
SYMATTR InstName C7
SYMATTR Value 1n
SYMBOL res -512 1280 R270
WINDOW 0 32 56 VTop 2
WINDOW 3 0 56 VBottom 2
SYMATTR InstName R5
SYMATTR Value 75K
SYMBOL cap -496 1088 R270
WINDOW 0 32 32 VTop 2
WINDOW 3 0 32 VBottom 2
SYMATTR InstName C8
SYMATTR Value 1n
SYMBOL nmos -272 224 R0
WINDOW 0 60 27 Left 2
WINDOW 3 57 59 Left 2
SYMATTR InstName Q3
SYMATTR Value RJK0305DPB
SYMBOL nmos -272 512 R0
WINDOW 0 -1 29 Right 2
WINDOW 3 -149 62 Left 2
SYMATTR InstName Q4
SYMATTR Value RJK0301DPB
SYMBOL schottky -464 320 R0
SYMATTR InstName D2
SYMATTR Value CMDSH2-3
SYMATTR Description Diode
SYMATTR Type diode
SYMBOL cap -464 416 R0
SYMATTR InstName C9
SYMATTR Value .1µ
SYMBOL ind -32 512 M270
WINDOW 0 32 56 VTop 2
WINDOW 3 5 56 VBottom 2
SYMATTR InstName L2
SYMATTR Value 0.56µ
SYMATTR SpiceLine Rser=1.8m
SYMBOL cap 64 512 R0
SYMATTR InstName C10
SYMATTR Value 100µ
SYMATTR SpiceLine Rser=2m
SYMBOL res -416 672 M90
WINDOW 0 0 56 VBottom 2
WINDOW 3 32 56 VTop 2
SYMATTR InstName R6
SYMATTR Value 1.58K
SYMBOL cap -496 704 R0
SYMATTR InstName C11
SYMATTR Value 220n
SYMBOL res 16 768 R0
SYMATTR InstName R7
SYMATTR Value 20K
SYMBOL res 16 880 R0
SYMATTR InstName R8
SYMATTR Value 20K
SYMBOL cap -208 992 R0
SYMATTR InstName C12
SYMATTR Value 1.5n
SYMBOL res -320 992 R270
WINDOW 0 32 56 VTop 2
WINDOW 3 0 56 VBottom 2
SYMATTR InstName R9
SYMATTR Value 5.9K
SYMBOL cap -384 992 R0
SYMATTR InstName C13
SYMATTR Value 220p
SYMBOL LTC3869 -736 784 R0
SYMATTR InstName U1
SYMBOL polcap -1776 512 R0
WINDOW 3 38 33 Left 2
WINDOW 123 24 62 Left 2
SYMATTR Value 330µ
SYMATTR Value2 x2
SYMATTR InstName C14
SYMATTR SpiceLine Rser=9m
SYMBOL polcap 160 512 R0
WINDOW 3 38 35 Left 2
WINDOW 123 24 66 Left 2
SYMATTR Value 330µ
SYMATTR Value2 x2
SYMATTR InstName C15
SYMATTR SpiceLine Rser=9m
SYMBOL res -1904 496 R0
SYMATTR InstName Rload1
SYMATTR Value .1
SYMBOL res 272 496 R0
SYMATTR InstName Rload2
SYMATTR Value .08
TEXT -1888 464 Bottom 2 ;1.5V, MAX 15A
TEXT 208 448 Left 2 ;1.2V, MAX 15A
TEXT -744 168 Bottom 2 ;LTC3869 - Dual, 2-Phase Synchronous Step-Down DC/DC Controller\nHigh Efficiency Dual 1.5V/1.2V Buck Converter using DCR Current Sensing\nInput: 4.5V-14V     Outputs: 1.5V @ 15A and 1.2V @ 15A, Fsw = 300kHz
TEXT -1408 1376 Left 2 ;Notes:\n  A 100 Ohm &  1nF Rsense filter may be required instead to counter effects of Rsense ESL. Refer to the datasheet for details. \n  If the simulation model is not found please update with the "Sync Release" command from the "Tools" menu.\n  It remains the customer's responsibility to verify proper and reliable operation in the actual application.\n  Component substitution and printed circuit board layout may significantly affect circuit performance or reliability.\n  Contact your local sales representative for assistance. This circuit is distributed to customers only for use with LTC parts.\n  Copyright © 2014 Linear Technology Inc. All rights reserved.
TEXT 32 1296 Left 2 !.tran .7m startup
