Version 4
SHEET 1 1920 756
WIRE 160 -64 144 -64
WIRE 144 0 144 -64
WIRE 240 0 240 -64
WIRE -64 48 -160 48
WIRE 16 48 -64 48
WIRE 48 48 16 48
WIRE 560 48 336 48
WIRE 720 48 560 48
WIRE 864 48 720 48
WIRE -160 64 -160 48
WIRE 864 64 864 48
WIRE -64 80 -64 48
WIRE 720 80 720 48
WIRE 560 96 560 48
WIRE 16 144 16 48
WIRE 48 144 16 144
WIRE 720 160 720 144
WIRE 864 160 864 144
WIRE -160 176 -160 144
WIRE -64 176 -64 144
WIRE 48 240 16 240
WIRE 560 240 560 176
WIRE 560 240 336 240
WIRE 560 256 560 240
WIRE -48 336 -64 336
WIRE 48 336 32 336
WIRE 368 336 336 336
WIRE 464 336 368 336
WIRE 560 352 560 336
WIRE 368 368 368 336
WIRE 464 368 464 336
WIRE 144 400 144 384
WIRE 240 400 240 384
WIRE 368 464 368 432
WIRE 464 464 464 448
FLAG -160 48 IN
FLAG 864 48 OUT
FLAG -160 176 0
FLAG -64 176 0
FLAG 16 240 0
FLAG -64 336 0
FLAG 464 464 0
FLAG 368 464 0
FLAG 560 352 0
FLAG 720 160 0
FLAG 144 400 0
FLAG 240 400 0
FLAG 864 160 0
SYMBOL PowerProducts\\LTC3127 192 192 R0
SYMATTR InstName U1
SYMBOL ind 144 -48 R270
WINDOW 0 32 56 VTop 0
WINDOW 3 5 56 VBottom 0
SYMATTR InstName L1
SYMATTR Value 4.7µ
SYMATTR SpiceLine Rser=50m
SYMBOL res 448 352 R0
SYMATTR InstName R1
SYMATTR Value 499K
SYMBOL cap 352 368 R0
SYMATTR InstName C1
SYMATTR Value 100p
SYMBOL res 544 240 R0
SYMATTR InstName R2
SYMATTR Value 1Meg
SYMBOL res 544 80 R0
SYMATTR InstName R3
SYMATTR Value 2.15Meg
SYMBOL res 48 320 R90
WINDOW 0 0 56 VBottom 0
WINDOW 3 32 56 VTop 0
SYMATTR InstName R4
SYMATTR Value 32.4K
SYMBOL cap -80 80 R0
SYMATTR InstName C2
SYMATTR Value 10µ
SYMBOL cap 704 80 R0
WINDOW 3 53 37 Left 0
WINDOW 40 36 66 Left 0
SYMATTR Value 2.2m
SYMATTR SpiceLine2 x3
SYMATTR InstName C3
SYMATTR SpiceLine Rser=20m
SYMBOL voltage -160 48 R0
WINDOW 123 0 0 Left 0
SYMATTR SpiceLine Rser=50m
SYMATTR InstName V1
SYMATTR Value 5
SYMBOL load2 864 64 R0
WINDOW 123 0 0 Left 0
WINDOW 39 25 112 Left 0
WINDOW 0 56 5 Left 0
SYMATTR InstName I2
SYMATTR Value PULSE(0 2 25m 1u 1u 1.15m 4.62m 2)
TEXT 840 328 Left 0 !.tran 35m startup
TEXT -240 488 Left 0 ;Notes:\n  If the simulation model is not found please update with the "Sync Release" command from the "Tools" menu.\n  It remains the customer's responsibility to verify proper and reliable operation in the actual application.\n  Component substitution and printed circuit board layout may significantly affect circuit performance or reliability.\n  Contact your local sales representative for assistance. This circuit is distributed to customers only for use with LTC parts.\n  Copyright © 2010 Linear Technology Inc. All rights reserved.
TEXT 320 -120 Bottom 0 ;LTC3127 - 1A Buck-Boost DC/DC Converter with Programmable Input Current Limit\nInput: 5V USB (500mA Max)     Output: 3.8V Class 10 GPRS Pulsed Load
