Version 4
SHEET 1 1296 1080
WIRE -448 -384 -688 -384
WIRE -400 -384 -448 -384
WIRE -304 -384 -400 -384
WIRE 848 -384 -304 -384
WIRE -688 -368 -688 -384
WIRE -400 -368 -400 -384
WIRE -304 -368 -304 -384
WIRE 224 -368 -112 -368
WIRE 512 -368 224 -368
WIRE 736 -352 128 -352
WIRE 128 -336 128 -352
WIRE 224 -336 224 -368
WIRE 512 -320 512 -368
WIRE -688 -272 -688 -288
WIRE -400 -272 -400 -304
WIRE -304 -272 -304 -304
WIRE -192 -272 -208 -272
WIRE -112 -272 -112 -368
WIRE -112 -272 -128 -272
WIRE -96 -272 -112 -272
WIRE 0 -272 -16 -272
WIRE 464 -272 448 -272
WIRE -464 -176 -576 -176
WIRE -400 -176 -464 -176
WIRE -304 -176 -400 -176
WIRE -224 -176 -304 -176
WIRE -112 -176 -112 -272
WIRE 736 -176 736 -352
WIRE 736 -176 592 -176
WIRE 864 -176 736 -176
WIRE 912 -176 864 -176
WIRE 1024 -176 912 -176
WIRE -576 -160 -576 -176
WIRE -400 -160 -400 -176
WIRE -304 -160 -304 -176
WIRE -224 -160 -224 -176
WIRE 592 -160 592 -176
WIRE 736 -160 736 -176
WIRE 912 -160 912 -176
WIRE 1024 -160 1024 -176
WIRE 0 -80 -176 -80
WIRE 544 -80 448 -80
WIRE -576 -64 -576 -80
WIRE -400 -64 -400 -96
WIRE -304 -64 -304 -96
WIRE 736 -64 736 -96
WIRE 912 -64 912 -96
WIRE 1024 -64 1024 -80
WIRE -112 16 -112 -112
WIRE 0 16 -112 16
WIRE 512 16 512 -256
WIRE 512 16 448 16
WIRE -112 32 -112 16
WIRE 512 32 512 16
WIRE -448 112 -448 -384
WIRE -432 112 -448 112
WIRE -336 112 -352 112
WIRE -320 112 -336 112
WIRE -224 112 -224 -64
WIRE -224 112 -240 112
WIRE -112 112 -112 96
WIRE -112 112 -224 112
WIRE 0 112 -112 112
WIRE 512 112 512 96
WIRE 512 112 448 112
WIRE 592 112 592 -64
WIRE 592 112 512 112
WIRE 624 112 592 112
WIRE 736 112 704 112
WIRE 752 112 736 112
WIRE 848 112 848 -384
WIRE 848 112 832 112
WIRE -224 128 -224 112
WIRE 592 128 592 112
WIRE 0 208 -176 208
WIRE 544 208 448 208
WIRE -224 256 -224 224
WIRE 592 256 592 224
WIRE -448 304 -448 112
WIRE 0 304 -448 304
WIRE 848 304 848 112
WIRE 848 304 448 304
WIRE -464 384 -464 -176
WIRE 864 384 864 -176
WIRE -336 400 -336 112
WIRE 0 400 -336 400
WIRE 736 400 736 112
WIRE 736 400 448 400
WIRE -464 496 -464 464
WIRE 0 496 -464 496
WIRE 864 496 864 464
WIRE 864 496 448 496
WIRE -464 512 -464 496
WIRE 864 512 864 496
WIRE -272 592 -304 592
WIRE 0 592 -208 592
WIRE 640 592 448 592
WIRE 736 592 704 592
WIRE -464 608 -464 592
WIRE 864 608 864 592
WIRE -80 688 -96 688
WIRE 0 688 -16 688
WIRE 464 688 448 688
WIRE 544 688 528 688
WIRE 128 768 128 752
WIRE 224 768 224 752
WIRE 320 768 320 752
FLAG -208 -272 0
FLAG -688 -272 0
FLAG -224 256 0
FLAG -304 -64 0
FLAG -576 -64 0
FLAG -576 -176 OUT1
FLAG -688 -384 IN
FLAG -464 608 0
FLAG -96 688 0
FLAG 224 768 0
FLAG 320 768 0
FLAG 128 768 0
FLAG -304 592 0
FLAG 592 256 0
FLAG 736 -64 0
FLAG 1024 -64 0
FLAG 1024 -176 OUT2
FLAG 864 608 0
FLAG 544 688 0
FLAG 736 592 0
FLAG 464 -272 0
FLAG -400 -272 0
FLAG -304 -272 0
FLAG 912 -64 0
FLAG -400 -64 0
SYMBOL cap -128 -288 R90
WINDOW 0 0 32 VBottom 2
WINDOW 3 32 32 VTop 2
SYMATTR InstName C1
SYMATTR Value 4.7µ
SYMBOL res -112 -256 R270
WINDOW 0 32 56 VTop 2
WINDOW 3 0 56 VBottom 2
SYMATTR InstName R1
SYMATTR Value 100K
SYMBOL voltage -688 -384 R0
WINDOW 123 0 0 Left 2
WINDOW 39 0 0 Left 2
SYMATTR InstName V1
SYMATTR Value pwl(0 0 1m 12)
SYMBOL res -448 128 R270
WINDOW 0 32 56 VTop 2
WINDOW 3 0 56 VBottom 2
SYMATTR InstName R2
SYMATTR Value 4m
SYMBOL ind -336 128 R270
WINDOW 0 32 56 VTop 2
WINDOW 3 5 56 VBottom 2
SYMATTR InstName L1
SYMATTR Value 3.3µ
SYMBOL nmos -176 -160 M0
WINDOW 0 0 9 Right 2
WINDOW 3 38 119 Right 2
SYMATTR InstName Q1
SYMATTR Value Si4840DY
SYMBOL nmos -176 128 M0
WINDOW 0 -3 31 Right 2
WINDOW 3 34 105 Right 2
SYMATTR InstName Q2
SYMATTR Value Si4840DY
SYMBOL cap -128 32 R0
SYMATTR InstName C2
SYMATTR Value .1µ
SYMBOL schottky -128 -176 R0
SYMATTR InstName D1
SYMATTR Value MBR0540
SYMATTR Description Diode
SYMATTR Type diode
SYMBOL cap -320 -160 R0
WINDOW 3 36 35 Left 2
WINDOW 40 24 58 Left 2
SYMATTR Value 22µ
SYMATTR SpiceLine2 x4
SYMATTR InstName C3
SYMATTR SpiceLine Rser=.003
SYMBOL res -480 496 R0
SYMATTR InstName R3
SYMATTR Value 12.1K
SYMBOL res -480 368 R0
SYMATTR InstName R4
SYMATTR Value 232K
SYMBOL cap -16 672 R90
WINDOW 0 0 32 VBottom 2
WINDOW 3 32 32 VTop 2
SYMATTR InstName C4
SYMATTR Value .01µ
SYMBOL cap -208 576 R90
WINDOW 0 0 32 VBottom 2
WINDOW 3 32 32 VTop 2
WINDOW 39 62 30 VTop 2
SYMATTR InstName C5
SYMATTR Value 15n
SYMATTR SpiceLine Rser=8.66K Cpar=220p
SYMBOL res 848 128 M270
WINDOW 0 32 56 VTop 2
WINDOW 3 0 56 VBottom 2
SYMATTR InstName R5
SYMATTR Value 3m
SYMBOL ind 720 128 M270
WINDOW 0 32 56 VTop 2
WINDOW 3 5 56 VBottom 2
SYMATTR InstName L2
SYMATTR Value 1.25µ
SYMBOL nmos 544 -160 R0
WINDOW 0 57 5 Left 2
WINDOW 3 53 103 Left 2
SYMATTR InstName Q3
SYMATTR Value Si4840DY
SYMBOL nmos 544 128 R0
WINDOW 0 56 35 Left 2
WINDOW 3 59 95 Left 2
SYMATTR InstName Q4
SYMATTR Value Si4840DY
SYMBOL cap 496 32 R0
SYMATTR InstName C6
SYMATTR Value .1µ
SYMBOL cap 720 -160 R0
WINDOW 3 39 31 Left 2
WINDOW 40 24 56 Left 2
SYMATTR Value 22µ
SYMATTR SpiceLine2 x4
SYMATTR InstName C7
SYMATTR SpiceLine Rser=.003
SYMBOL res 848 496 R0
SYMATTR InstName R6
SYMATTR Value 12.1K
SYMBOL res 848 368 R0
SYMATTR InstName R7
SYMATTR Value 110K
SYMBOL cap 464 704 R270
WINDOW 3 0 32 VBottom 2
WINDOW 0 32 32 VTop 2
SYMATTR Value .01µ
SYMATTR InstName C8
SYMBOL cap 640 576 M90
WINDOW 0 0 32 VBottom 2
WINDOW 3 32 32 VTop 2
WINDOW 39 63 31 VTop 2
SYMATTR InstName C9
SYMATTR Value 15n
SYMATTR SpiceLine Rser=2.7K Cpar=100p
SYMBOL schottky 496 -320 R0
SYMATTR InstName D2
SYMATTR Value MBR0540
SYMATTR Description Diode
SYMATTR Type diode
SYMBOL PowerProducts\\LTC3788-1 224 208 R0
SYMATTR InstName U1
SYMBOL res -592 -176 R0
SYMATTR InstName Rload1
SYMATTR Value 4.8
SYMBOL res 1008 -176 R0
SYMATTR InstName Rload2
SYMATTR Value 2.4
SYMBOL cap -416 -368 R0
WINDOW 3 37 33 Left 2
WINDOW 39 24 55 Left 2
SYMATTR Value 22µ
SYMATTR SpiceLine x4
SYMATTR InstName C10
SYMBOL cap -320 -368 R0
SYMATTR InstName C11
SYMATTR Value 220µ
SYMBOL cap 896 -160 R0
SYMATTR InstName C12
SYMATTR Value 220µ
SYMATTR SpiceLine Rser=.006
SYMBOL cap -416 -160 R0
SYMATTR InstName C13
SYMATTR Value 220µ
SYMATTR SpiceLine Rser=.006
TEXT 800 712 Left 2 !.tran 3m
TEXT 232 -408 Bottom 2 ;LTC3788-1 - 2-Phase, Dual Output Synchronous Boost Controller\nHigh Efficiency Dual 12V/24V Boost Converter with Rsense Current Sensing\nInput: 4.5V to 24V (2.5V Min After Startup)      Output: 24V @ 5A & 12V @ 10A (Reduced if Vin<8V)
TEXT -360 784 Left 2 ;Notes:\n  SS capacitors have been reduced to speed up simulation time. Typical values should be 0.1µF.\n  If the simulation model is not found please update with the "Sync Release" command from the "Tools" menu.\n  It remains the customer's responsibility to verify proper and reliable operation in the actual application.\n  Component substitution and printed circuit board layout may significantly affect circuit performance or reliability.\n  Contact your local sales representative for assistance. This circuit is distributed to customers only for use with LTC parts.\n  Copyright © 2013 Linear Technology Inc. All rights reserved.
