Version 4
SHEET 1 2240 800
WIRE 176 -80 16 -80
WIRE 432 -80 256 -80
WIRE 16 80 16 -80
WIRE 64 80 16 80
WIRE 432 80 432 -80
WIRE 432 80 352 80
WIRE -16 176 -48 176
WIRE 64 176 48 176
WIRE 368 176 352 176
WIRE 464 176 448 176
WIRE 512 176 464 176
WIRE 608 176 512 176
WIRE 736 176 608 176
WIRE 608 192 608 176
WIRE 736 192 736 176
WIRE 512 208 512 176
WIRE 64 272 48 272
WIRE 464 272 464 176
WIRE 464 272 352 272
WIRE 512 304 512 272
WIRE 608 304 608 272
WIRE 736 304 736 272
WIRE -80 368 -96 368
WIRE 16 368 0 368
WIRE 64 368 16 368
WIRE 384 368 352 368
WIRE 208 384 208 368
WIRE 64 464 48 464
WIRE 384 464 352 464
WIRE 208 528 208 512
WIRE 16 560 16 368
WIRE 384 560 384 464
WIRE 384 560 16 560
FLAG -96 368 0
FLAG 736 176 OUT
FLAG 208 384 0
FLAG 512 304 0
FLAG 608 304 0
FLAG 736 304 0
FLAG 48 272 0
FLAG -48 176 0
FLAG 208 528 0
FLAG 48 464 0
SYMBOL PowerProducts\\LTC3588-1 208 272 R0
SYMATTR InstName U1
SYMBOL ind 352 192 R270
WINDOW 0 32 56 VTop 0
WINDOW 3 5 56 VBottom 0
SYMATTR InstName L1
SYMATTR Value 22µ
SYMATTR SpiceLine Ipk=0.75 Rser=0.19
SYMBOL cap 48 160 R90
WINDOW 0 0 32 VBottom 0
WINDOW 3 32 32 VTop 0
SYMATTR InstName C1
SYMATTR Value 22µ
SYMATTR SpiceLine V=25V
SYMBOL cap 496 208 R0
SYMATTR InstName C2
SYMATTR Value 100µ
SYMATTR SpiceLine V=6.3V
SYMBOL res 592 176 R0
SYMATTR InstName Rload
SYMATTR Value 500K
SYMBOL voltage 272 -80 R90
WINDOW 0 -32 56 VBottom 0
WINDOW 3 32 56 VTop 0
WINDOW 123 74 56 VTop 0
WINDOW 39 53 56 VTop 0
SYMATTR InstName V1
SYMATTR Value SINE(0 24 41)
SYMATTR SpiceLine Rser=119K
SYMBOL voltage 16 368 R90
WINDOW 123 74 56 VTop 0
WINDOW 39 53 56 VTop 0
WINDOW 0 -32 56 VBottom 0
WINDOW 3 32 56 VTop 0
SYMATTR InstName V2
SYMATTR Value 5
SYMBOL current 736 192 R0
WINDOW 123 24 130 Left 0
WINDOW 39 24 109 Left 0
SYMATTR Value PULSE(0 30m 5 1u 1u 10m 3)
SYMATTR InstName I1
TEXT 560 368 Left 0 !.tran 10 startup
TEXT -320 560 Left 0 ;Notes:\n  If the simulation model is not found please update with the "Sync Release" command from the "Tools" menu.\n  It remains the customer's responsibility to verify proper and reliable operation in the actual application.\n  Component substitution and printed circuit board layout may significantly affect circuit performance or reliability.\n  Contact your local sales representative for assistance. This circuit is distributed to customers only for use with LTC parts.\n  Copyright © 2010 Linear Technology Inc. All rights reserved.
TEXT 216 -296 Bottom 0 ;LTC3588-1,  Piezoelectric Energy Harvesting Power Supply with Simulated Remote Sensor/Transmitter\nInput: 24V 41Hz  Rs=119K     Output: 3.3V with 30mA 10msec Pulse Load
TEXT 224 -136 Bottom 0 ;Piezoelectric Device\nMIDE V22BL\n1.4 Gpk Force at 41Hz\nwith Tip Mass of 1 gm.
CIRCLE Normal 416 16 16 -288 2
