Version 4
SHEET 1 1324 680
WIRE 64 -256 -80 -256
WIRE 416 -256 64 -256
WIRE 608 -256 464 -256
WIRE 704 -256 672 -256
WIRE 768 -256 704 -256
WIRE 896 -256 768 -256
WIRE -80 -240 -80 -256
WIRE 416 -240 416 -256
WIRE 464 -240 464 -256
WIRE 768 -240 768 -256
WIRE 896 -240 896 -256
WIRE 64 -160 64 -256
WIRE 336 -160 192 -160
WIRE -80 -144 -80 -160
WIRE 336 -144 336 -160
WIRE 464 -144 464 -160
WIRE 768 -144 768 -176
WIRE 896 -144 896 -160
WIRE 192 -112 192 -160
WIRE 336 -32 336 -64
WIRE -32 48 -48 48
WIRE 64 48 64 -80
WIRE 64 48 32 48
WIRE 144 48 64 48
WIRE 192 48 192 32
WIRE 192 48 144 48
WIRE 416 80 416 -160
WIRE 144 96 144 48
WIRE -96 160 -112 160
WIRE -16 160 -32 160
WIRE 368 160 304 160
WIRE 416 192 416 176
WIRE 416 192 368 192
WIRE 416 208 416 192
WIRE 704 208 704 -256
WIRE 704 208 592 208
WIRE 704 224 704 208
WIRE -16 240 -32 240
WIRE 368 240 368 192
WIRE 368 240 304 240
WIRE 592 240 592 208
WIRE 416 304 416 288
WIRE -192 336 -208 336
WIRE -112 336 -128 336
WIRE -16 336 -32 336
WIRE 592 336 592 304
WIRE 592 336 304 336
WIRE 704 336 704 304
WIRE 704 336 592 336
WIRE 704 352 704 336
WIRE 144 432 144 400
WIRE 704 448 704 432
FLAG 416 304 0
FLAG -80 -144 0
FLAG 768 -144 0
FLAG 704 448 0
FLAG 144 432 0
FLAG 896 -144 0
FLAG -48 48 0
FLAG 464 -144 0
FLAG -80 -256 IN
FLAG 896 -256 OUT
FLAG -112 160 0
FLAG 336 -32 0
FLAG -32 240 0
FLAG -208 336 0
SYMBOL nmos 368 80 R0
SYMATTR InstName Q1
SYMATTR Value FDC2512
SYMBOL voltage -80 -256 R0
SYMATTR InstName V1
SYMATTR Value 48
SYMBOL cap -128 320 R90
WINDOW 0 0 32 VBottom 0
WINDOW 3 36 33 VTop 0
WINDOW 39 66 35 VTop 0
SYMATTR InstName C1
SYMATTR Value .0022µ
SYMBOL cap 752 -240 R0
WINDOW 3 37 34 Left 0
WINDOW 40 30 60 Left 0
SYMATTR Value 100µ
SYMATTR SpiceLine2 x2
SYMATTR InstName C2
SYMBOL res 688 208 R0
SYMATTR InstName R1
SYMATTR Value 21.5K
SYMBOL res 688 336 R0
SYMATTR InstName R2
SYMATTR Value 12.1K
SYMBOL ind2 400 -256 R0
WINDOW 0 -4 39 Right 0
WINDOW 3 -3 71 Right 0
SYMATTR InstName L1
SYMATTR Value 155µ
SYMATTR Type ind
SYMATTR SpiceLine Rser=0.33
SYMBOL ind2 480 -144 R180
WINDOW 0 -4 71 Right 0
WINDOW 3 -2 34 Right 0
SYMATTR InstName L2
SYMATTR Value 4.3µ
SYMATTR Type ind
SYMATTR SpiceLine Rser=11m
SYMBOL cap 32 32 R90
WINDOW 0 0 32 VBottom 0
WINDOW 3 32 32 VTop 0
SYMATTR InstName C3
SYMATTR Value 1µ
SYMBOL schottky 608 -240 R270
WINDOW 0 32 32 VTop 0
WINDOW 3 0 32 VBottom 0
SYMATTR InstName D1
SYMATTR Value MBR735
SYMATTR Description Diode
SYMATTR Type diode
SYMBOL res 400 192 R0
SYMATTR InstName R3
SYMATTR Value 68m
SYMBOL cap -32 144 R90
WINDOW 0 0 32 VBottom 0
WINDOW 3 32 32 VTop 0
SYMATTR InstName C4
SYMATTR Value .01µ
SYMBOL cap 576 240 R0
SYMATTR InstName C6
SYMATTR Value 47p
SYMBOL res -128 320 M90
WINDOW 0 0 56 VBottom 0
WINDOW 3 32 56 VTop 0
SYMATTR InstName R4
SYMATTR Value 15K
SYMBOL ind2 320 -48 M180
WINDOW 0 36 72 Left 0
WINDOW 3 37 42 Left 0
SYMATTR InstName L3
SYMATTR Value 38µ
SYMATTR Type ind
SYMATTR SpiceLine Rser=0.46
SYMBOL diode 176 -112 R0
WINDOW 3 -80 66 Left 0
SYMATTR Value 1N4148
SYMATTR InstName D2
SYMBOL res 48 -176 R0
SYMATTR InstName R5
SYMATTR Value 100K
SYMBOL PowerProducts\\LTC3873 144 240 R0
SYMATTR InstName U1
SYMBOL res 176 -64 R0
SYMATTR InstName R6
SYMATTR Value 100
SYMBOL res 880 -256 R0
SYMATTR InstName Rload
SYMATTR Value 1.1
TEXT 408 400 Left 0 !.tran 25m startup
TEXT 432 -264 Bottom 0 !K1 L1 L2 L3 1
TEXT 448 -96 Left 0 ;Pulse
TEXT 432 -56 Left 0 ;PA1861NL
TEXT 408 -320 Bottom 0 ;LTC3873 - No Rsense(TM) Constant Frequency Current Mode Boost/Flyback/SEPIC DC/DC Controller\nInput: 48V            Output 3.3V @ 3A\nTelecom DC/DC Converter
TEXT -216 472 Left 0 ;Note:\n  If the simulation model is not found please update with the "Sync Release" command from the "Tools" menu.\n  It remains the customer's responsibility to verify proper and reliable operation in the actual application.\n  Component substitution and printed circuit board layout may significantly affect circuit performance or reliability\n  Contact your local sales representative for assistance. This circuit is distributed to customers only for use with LTC parts\n  Copyright © 2008 Linear Technology Inc. All rights reserved.
RECTANGLE Normal 560 0 288 -304 2
