Version 4
SHEET 1 2936 1972
WIRE 1312 1264 1312 1232
WIRE 1312 1376 1312 1344
WIRE 1424 1232 1312 1232
WIRE 1424 1280 1424 1232
WIRE 1424 1376 1424 1344
WIRE 1504 1232 1424 1232
WIRE 1504 1344 1504 1232
WIRE 1552 1344 1504 1344
WIRE 1696 1232 1504 1232
WIRE 1696 1280 1696 1232
WIRE 1696 1600 1696 1568
WIRE 1856 1344 1840 1344
WIRE 1952 1344 1936 1344
WIRE 1952 1392 1952 1344
WIRE 1952 1504 1840 1504
WIRE 1952 1504 1952 1456
WIRE 2032 1344 1952 1344
WIRE 2032 1376 2032 1344
WIRE 2032 1504 1952 1504
WIRE 2032 1504 2032 1456
WIRE 2032 1520 2032 1504
WIRE 2032 1616 2032 1600
WIRE 2144 1344 2032 1344
WIRE 2144 1440 2144 1344
WIRE 2144 1616 2144 1504
WIRE 2256 1344 2144 1344
WIRE 2256 1424 2256 1344
WIRE 2256 1616 2256 1504
FLAG 1696 1600 0
FLAG 1312 1376 0
FLAG 2256 1616 0
FLAG 2032 1616 0
FLAG 2144 1616 0
FLAG 2256 1344 OUT
FLAG 1424 1376 0
FLAG 1312 1232 IN
SYMBOL ind 1840 1360 R270
WINDOW 0 32 56 VTop 0
WINDOW 3 5 56 VBottom 0
SYMATTR InstName L1
SYMATTR Value 2.2µ
SYMATTR SpiceLine Rser=.0042
SYMBOL RES 2016 1360 R0
SYMATTR InstName R1
SYMATTR Value 301K
SYMBOL VOLTAGE 1312 1248 R0
SYMATTR SpiceLine Rser=0.01
SYMATTR InstName V1
SYMATTR Value 3.3
SYMBOL cap 2128 1440 R0
SYMATTR InstName C1
SYMATTR Value 10µ
SYMATTR SpiceLine V=10 Irms=8.919 Rser=0.005 MTBF=0 Lser=0 mfg="KEMET" pn="C1210C106K8PAC" type="X5R" ppPkg=1
SYMBOL res 2016 1504 R0
SYMATTR InstName R2
SYMATTR Value 301K
SYMBOL current 2256 1424 R0
WINDOW 123 0 0 Left 0
WINDOW 39 22 105 Left 0
WINDOW 3 22 76 Left 0
SYMATTR SpiceLine load
SYMATTR Value 600m
SYMATTR InstName I1
SYMBOL cap 1408 1280 R0
SYMATTR InstName C2
SYMATTR Value 4.7µ
SYMATTR SpiceLine V=10 Irms=8.919 Rser=0.005 MTBF=0 Lser=0 mfg="KEMET" pn="C1210C106K8PAC" type="X5R" ppPkg=1
SYMBOL cap 1936 1392 R0
SYMATTR InstName C3
SYMATTR Value 22p
SYMBOL PowerProducts\\LTC3406 1696 1424 R0
SYMATTR InstName U1
TEXT 1800 1600 Left 0 !.tran 200u startup
TEXT 1240 1624 Left 0 ;Note:\n  If the simulation model is not found please update with the "Sync Release" command from the "Tools" menu.\n  It remains the customer's responsibility to verify proper and reliable operation in the actual application.\n  Component substitution and printed circuit board layout may significantly affect circuit performance or reliability\n  Contact your local sales representative for assistance. This circuit is distributed to customers only for use with LTC parts\n  Copyright © 2006 Linear Technology Inc. All rights reserved.
TEXT 1808 1184 Center 0 ;LTC3406 - 1.5MHz, 600mA, Synchronous Step-Down Regulator in ThinSOT\nInput: 3.3V     Output: 1.2V @ 600mA
