Version 4
SHEET 1 1544 680
WIRE -32 48 -80 48
WIRE 96 48 48 48
WIRE 96 96 96 48
WIRE -176 160 -288 160
WIRE -80 160 -80 48
WIRE -80 160 -176 160
WIRE -48 160 -80 160
WIRE 304 160 240 160
WIRE 416 160 304 160
WIRE 528 160 416 160
WIRE 640 160 528 160
WIRE -288 176 -288 160
WIRE 304 176 304 160
WIRE 528 176 528 160
WIRE 640 176 640 160
WIRE -176 192 -176 160
WIRE 416 192 416 160
WIRE 528 272 528 240
WIRE 640 272 640 256
WIRE -288 288 -288 256
WIRE -176 288 -176 256
WIRE -80 288 -80 160
WIRE -48 288 -80 288
WIRE 304 288 304 256
WIRE 304 288 240 288
WIRE 416 288 416 256
WIRE 416 288 304 288
WIRE 304 304 304 288
WIRE 96 368 96 352
WIRE 304 400 304 384
FLAG -176 288 0
FLAG 528 272 0
FLAG 304 400 0
FLAG 96 368 0
FLAG 640 160 OUT
FLAG -288 288 0
FLAG 640 272 0
FLAG -288 160 IN
SYMBOL res 288 160 R0
SYMATTR InstName R1
SYMATTR Value 887K
SYMBOL res 288 288 R0
SYMATTR InstName R2
SYMATTR Value 499K
SYMBOL cap -192 192 R0
SYMATTR InstName C1
SYMATTR Value 1µ
SYMBOL cap 512 176 R0
SYMATTR InstName C2
SYMATTR Value 4.7µ
SYMBOL ind -48 64 R270
WINDOW 0 32 56 VTop 0
WINDOW 3 5 56 VBottom 0
SYMATTR InstName L1
SYMATTR Value 2.2µ
SYMATTR SpiceLine Ipk=1.1 Rser=0.13 Rpar=207 Cpar=0 mfg="Coilcraft" pn="LPO3310-222MX"
SYMBOL cap 400 192 R0
SYMATTR InstName C3
SYMATTR Value 33p
SYMBOL voltage -288 160 R0
WINDOW 123 0 0 Left 0
WINDOW 39 24 132 Left 0
SYMATTR InstName V1
SYMATTR Value 2
SYMBOL res 624 160 R0
SYMATTR InstName R3
SYMATTR Value 33
SYMBOL PowerProducts\\LTC3526-2 96 224 R0
SYMATTR InstName U1
TEXT 488 352 Left 0 !.tran 500u startup
TEXT 208 -8 Bottom 0 ;LTC3526-2 500mA 2MHz Synchronous Boost Converter\nInput: 1V to 5V  Output 3.3V @ 100mA
TEXT -400 416 Left 0 ;Note:\n  If the simulation model is not found please update with the "Sync Release" command from the "Tools" menu.\n  It remains the customer's responsibility to verify proper and reliable operation in the actual application.\n  Component substitution and printed circuit board layout may significantly affect circuit performance or reliability.\n  Contact your local sales representative for assistance. This circuit is distributed to customers only for use with LTC parts.\n  Copyright © 2006 Linear Technology Inc. All rights reserved.
