Version 4
SHEET 1 2172 840
WIRE -128 -288 -224 -288
WIRE 528 -288 -128 -288
WIRE -224 -272 -224 -288
WIRE 528 -256 528 -288
WIRE 96 -240 80 -240
WIRE 208 -240 160 -240
WIRE 368 -240 208 -240
WIRE 368 -208 368 -240
WIRE 208 -192 208 -240
WIRE -224 -176 -224 -192
WIRE -128 -128 -128 -288
WIRE -16 -128 -128 -128
WIRE 80 -128 -16 -128
WIRE 368 -128 368 -144
WIRE 368 -128 336 -128
WIRE 528 -128 528 -176
WIRE 528 -128 400 -128
WIRE -16 -112 -16 -128
WIRE 528 -112 528 -128
WIRE 80 -32 -16 -32
WIRE 480 -32 336 -32
WIRE -16 64 -64 64
WIRE 80 64 64 64
WIRE 400 64 400 -128
WIRE 400 64 336 64
WIRE 368 80 368 -128
WIRE -48 160 -64 160
WIRE 80 160 16 160
WIRE 368 160 368 144
WIRE 368 160 336 160
WIRE 528 160 528 -16
WIRE 528 160 368 160
WIRE 592 160 528 160
WIRE 704 160 672 160
WIRE 864 160 704 160
WIRE 960 160 864 160
WIRE 1072 160 960 160
WIRE 1168 160 1072 160
WIRE 528 176 528 160
WIRE 960 176 960 160
WIRE 1072 176 1072 160
WIRE 1168 176 1168 160
WIRE 704 240 704 160
WIRE 864 240 864 160
WIRE -16 256 -64 256
WIRE 80 256 64 256
WIRE 480 256 336 256
WIRE 960 272 960 240
WIRE 1072 272 1072 240
WIRE 1168 272 1168 256
WIRE 528 288 528 272
WIRE -128 336 -128 -128
WIRE 384 352 336 352
WIRE 704 352 704 304
WIRE 704 352 384 352
WIRE 864 352 864 320
WIRE 864 352 704 352
WIRE 384 368 384 352
WIRE 864 368 864 352
WIRE -128 448 -128 416
WIRE 80 448 -128 448
WIRE 384 448 384 432
WIRE 384 448 336 448
WIRE -128 464 -128 448
WIRE 864 464 864 448
WIRE 160 528 160 512
WIRE 256 528 256 512
WIRE -128 560 -128 544
FLAG -224 -176 0
FLAG 528 288 0
FLAG 960 272 0
FLAG 80 -240 0
FLAG -64 64 0
FLAG -64 160 0
FLAG -64 256 0
FLAG 160 528 0
FLAG 256 528 0
FLAG -128 560 0
FLAG 864 464 0
FLAG 1168 272 0
FLAG 1168 160 OUT
FLAG -224 -288 IN
FLAG 1072 272 0
SYMBOL PowerProducts\\LTC3775 208 160 R0
SYMATTR InstName U1
SYMBOL voltage -224 -288 R0
SYMATTR InstName V1
SYMATTR Value 12
SYMBOL res -32 -128 R0
SYMATTR InstName R1
SYMATTR Value 2.15K
SYMBOL nmos 480 -112 R0
SYMATTR InstName Q1
SYMATTR Value RJK0305DPB
SYMBOL nmos 480 176 R0
SYMATTR InstName Q2
SYMATTR Value RJK0301DPB
SYMBOL ind 576 176 R270
WINDOW 0 32 56 VTop 0
WINDOW 3 5 56 VBottom 0
SYMATTR InstName L1
SYMATTR Value .39µ
SYMATTR SpiceLine Rser=1m Rpar=5K
SYMBOL cap 352 80 R0
WINDOW 3 25 56 Left 0
SYMATTR Value .1µ
SYMATTR InstName C1
SYMBOL schottky 352 -208 R0
WINDOW 3 23 67 Left 0
SYMATTR Value CMDSH2-3
SYMATTR InstName D1
SYMATTR Description Diode
SYMATTR Type diode
SYMBOL res 512 -272 R0
SYMATTR InstName R2
SYMATTR Value 5m
SYMBOL polcap 944 176 R0
WINDOW 3 37 41 Left 0
WINDOW 123 35 73 Left 0
SYMATTR Value 470µ
SYMATTR Value2 x2
SYMATTR InstName C2
SYMATTR Description Capacitor
SYMATTR Type cap
SYMATTR SpiceLine Rser=.01
SYMBOL cap 160 -256 R90
WINDOW 0 0 32 VBottom 0
WINDOW 3 32 32 VTop 0
SYMATTR InstName C3
SYMATTR Value 4.7µ
SYMBOL res 80 48 R90
WINDOW 0 0 56 VBottom 0
WINDOW 3 32 56 VTop 0
SYMATTR InstName R3
SYMATTR Value 73.2K
SYMBOL cap 16 144 R90
WINDOW 0 0 32 VBottom 0
WINDOW 3 32 32 VTop 0
SYMATTR InstName C4
SYMATTR Value .001µ
SYMBOL res 80 240 R90
WINDOW 0 0 56 VBottom 0
WINDOW 3 32 56 VTop 0
SYMATTR InstName R4
SYMATTR Value 38.3K
SYMBOL res -144 320 R0
SYMATTR InstName R5
SYMATTR Value 43.2K
SYMBOL res -144 448 R0
SYMATTR InstName R6
SYMATTR Value 10K
SYMBOL res 848 224 R0
SYMATTR InstName R7
SYMATTR Value 10K
SYMBOL res 848 352 R0
SYMATTR InstName R8
SYMATTR Value 10K
SYMBOL cap 368 368 R0
WINDOW 39 25 68 Left 0
WINDOW 3 42 35 Left 0
SYMATTR SpiceLine Rser=1.5K Cpar=100p
SYMATTR Value 0.01µ
SYMATTR InstName C5
SYMBOL res 1152 160 R0
SYMATTR InstName Rload
SYMATTR Value .25
SYMBOL cap 688 240 R0
WINDOW 3 41 31 Left 0
WINDOW 39 21 62 Left 0
SYMATTR Value 2200p
SYMATTR SpiceLine Rser=1K
SYMATTR InstName C6
SYMBOL cap 1056 176 R0
WINDOW 0 36 22 Left 0
WINDOW 3 40 47 Left 0
SYMATTR InstName C7
SYMATTR Value 100µ
SYMATTR SpiceLine Rser=3m
TEXT 816 528 Left 0 !.tran 1m startup
TEXT 384 -304 Bottom 0 ;LTC3775 - High Frequency Synchronous Step-Down Voltage Mode DC/DC Controller\nVin: 5V-26V, Vout: 1.2V @ 15A
TEXT -256 552 Left 0 ;Notes:\n \n  C4 should be 0.01µF, not 0.001µF.  It is reduced in value here to speed up the time to simulate a soft start cycle.\n \n  If the simulation model is not found please update with the "Sync Release" command from the "Tools" menu.\n  It remains the customer's responsibility to verify proper and reliable operation in the actual application.\n  Component substitution and printed circuit board layout may significantly affect circuit performance or reliability.\n  Contact your local sales representative for assistance. This circuit is distributed to customers only for use with LTC parts.\n  Copyright © 2011 Linear Technology Inc. All rights reserved.
