Version 4
SHEET 1 1312 1684
WIRE -1024 800 -1024 784
WIRE -1024 896 -1024 880
WIRE -912 784 -1024 784
WIRE -912 800 -912 784
WIRE -912 896 -912 864
WIRE -880 448 -880 432
WIRE -880 560 -880 528
WIRE -832 784 -912 784
WIRE -832 1104 -832 784
WIRE -832 1200 -832 1184
WIRE -832 1216 -832 1200
WIRE -832 1312 -832 1296
WIRE -768 432 -880 432
WIRE -768 464 -768 432
WIRE -768 560 -768 528
WIRE -752 784 -832 784
WIRE -752 912 -752 784
WIRE -752 1008 -752 992
WIRE -752 1024 -752 1008
WIRE -752 1120 -752 1104
WIRE -688 784 -752 784
WIRE -672 432 -768 432
WIRE -672 464 -672 432
WIRE -672 560 -672 528
WIRE -672 1088 -672 1072
WIRE -608 1072 -672 1072
WIRE -576 432 -672 432
WIRE -576 656 -576 432
WIRE -576 672 -576 656
WIRE -576 784 -608 784
WIRE -576 784 -576 768
WIRE -576 800 -576 784
WIRE -576 944 -576 896
WIRE -576 960 -576 944
WIRE -528 1072 -544 1072
WIRE -528 1088 -528 1072
WIRE -528 1168 -528 1152
WIRE -512 784 -576 784
WIRE -512 816 -512 784
WIRE -480 688 -528 688
WIRE -480 752 -480 688
WIRE -448 624 -448 544
WIRE -448 656 -576 656
WIRE -448 688 -448 656
WIRE -432 624 -448 624
WIRE -432 688 -448 688
WIRE -432 752 -480 752
WIRE -432 816 -512 816
WIRE -432 880 -528 880
WIRE -432 944 -576 944
WIRE -432 1008 -752 1008
WIRE -432 1072 -528 1072
WIRE -432 1136 -448 1136
WIRE -432 1200 -832 1200
WIRE -336 432 -576 432
WIRE -336 448 -336 432
WIRE -336 544 -448 544
WIRE -336 544 -336 528
WIRE -336 576 -336 544
WIRE -272 1264 -272 1248
WIRE -208 432 -336 432
WIRE -208 448 -208 432
WIRE -208 576 -208 528
WIRE -96 544 -336 544
WIRE -96 624 -112 624
WIRE -96 624 -96 544
WIRE -96 688 -112 688
WIRE -96 688 -96 656
WIRE -96 1136 -112 1136
WIRE -48 544 -96 544
WIRE -48 624 -48 608
WIRE -48 752 -112 752
WIRE -48 752 -48 688
WIRE -16 1136 -32 1136
WIRE 0 816 -112 816
WIRE 0 816 0 784
WIRE 32 1072 -112 1072
WIRE 32 1104 32 1072
WIRE 32 1184 32 1168
WIRE 48 688 -48 688
WIRE 48 880 -112 880
WIRE 96 432 -208 432
WIRE 96 656 -96 656
WIRE 96 656 96 432
WIRE 96 672 96 656
WIRE 96 784 0 784
WIRE 96 784 96 768
WIRE 96 800 96 784
WIRE 96 944 -112 944
WIRE 96 944 96 896
WIRE 96 960 96 944
WIRE 96 1072 32 1072
WIRE 144 784 96 784
WIRE 192 1072 160 1072
WIRE 192 1088 192 1072
WIRE 192 1184 192 1168
WIRE 272 784 224 784
WIRE 272 832 272 784
WIRE 272 1008 -112 1008
WIRE 272 1008 272 912
WIRE 272 1024 272 1008
WIRE 272 1120 272 1104
WIRE 368 784 272 784
WIRE 368 816 368 784
WIRE 368 912 368 880
WIRE 464 784 368 784
WIRE 464 816 464 784
WIRE 464 912 464 896
FLAG -832 1312 0
FLAG -48 624 0
FLAG -576 960 0
FLAG -528 1168 0
FLAG -672 1168 0
FLAG -912 896 0
FLAG -752 1120 0
FLAG -1024 784 OUT1
FLAG -880 560 0
FLAG 96 960 0
FLAG 32 1184 0
FLAG 192 1184 0
FLAG 368 912 0
FLAG 272 1120 0
FLAG 464 784 OUT2
FLAG -1024 896 0
FLAG 464 912 0
FLAG -448 1136 0
FLAG -272 1264 0
FLAG -768 560 0
FLAG -672 560 0
FLAG -16 1136 0
FLAG -880 432 IN
SYMBOL nmos -528 800 M0
WINDOW 0 56 43 Left 0
WINDOW 3 56 77 Left 0
SYMATTR InstName Q1b
SYMATTR Value Si7540DP_N
SYMBOL cap -64 544 R0
SYMATTR InstName C1
SYMATTR Value 1µ
SYMBOL ind -592 800 M270
WINDOW 0 32 56 VTop 0
WINDOW 3 5 56 VBottom 0
SYMATTR InstName L1
SYMATTR Value 1.5µ
SYMATTR SpiceLine Rser=0.014
SYMBOL res -768 1008 R0
SYMATTR InstName R1
SYMATTR Value 59K
SYMBOL res -768 1008 M180
WINDOW 0 36 76 Left 0
WINDOW 3 36 40 Left 0
SYMATTR InstName R2
SYMATTR Value 187K
SYMBOL cap -928 800 R0
SYMATTR SpiceLine Rser=0.005
SYMATTR InstName C2
SYMATTR Value 47µ
SYMBOL cap -544 1056 R90
WINDOW 0 0 32 VBottom 0
WINDOW 3 32 32 VTop 0
SYMATTR InstName C3
SYMATTR Value 470p
SYMBOL cap -544 1088 R0
SYMATTR InstName C4
SYMATTR Value 22p
SYMBOL res -688 1072 R0
SYMATTR InstName R3
SYMATTR Value 15K
SYMBOL VOLTAGE -880 432 R0
WINDOW 0 32 41 Left 0
WINDOW 123 0 0 Left 0
WINDOW 39 0 0 Left 0
SYMATTR InstName V1
SYMATTR Value 3.3
SYMBOL nmos 48 800 R0
SYMATTR InstName Q2b
SYMATTR Value Si7540DP_N
SYMBOL res 256 1008 R0
SYMATTR InstName R4
SYMATTR Value 59K
SYMBOL res 256 928 M180
WINDOW 0 36 76 Left 0
WINDOW 3 36 40 Left 0
SYMATTR InstName R5
SYMATTR Value 118K
SYMBOL cap 352 816 R0
SYMATTR SpiceLine Rser=0.005
SYMATTR InstName C5
SYMATTR Value 47µ
SYMBOL cap 96 1088 R270
WINDOW 0 32 32 VTop 0
WINDOW 3 0 32 VBottom 0
SYMATTR InstName C6
SYMATTR Value 470p
SYMBOL cap 16 1104 R0
SYMATTR InstName C7
SYMATTR Value 22p
SYMBOL res 176 1072 R0
SYMATTR InstName R6
SYMATTR Value 15K
SYMBOL ind 128 800 R270
WINDOW 0 32 56 VTop 0
WINDOW 3 5 56 VBottom 0
SYMATTR InstName L2
SYMATTR Value 1.5µ
SYMATTR SpiceLine Rser=0.014
SYMBOL pmos 48 768 M180
WINDOW 3 64 56 Left 0
WINDOW 0 71 102 Left 0
SYMATTR Value Si7540DP_P
SYMATTR InstName Q2a
SYMBOL res -352 432 R0
SYMATTR InstName R7
SYMATTR Value 10
SYMBOL res -224 432 R0
SYMATTR InstName R8
SYMATTR Value 100K
SYMBOL pmos -528 768 R180
WINDOW 3 59 44 Left 0
WINDOW 0 72 79 Left 0
SYMATTR Value Si7540DP_P
SYMATTR InstName Q1a
SYMBOL res -848 1200 M180
WINDOW 0 36 76 Left 0
WINDOW 3 36 40 Left 0
SYMATTR InstName R9
SYMATTR Value 11.8K
SYMBOL res -848 1312 M180
WINDOW 0 36 76 Left 0
WINDOW 3 36 40 Left 0
SYMATTR InstName R10
SYMATTR Value 5.9K
SYMBOL cap -784 464 R0
SYMATTR InstName C8
SYMATTR Value 10µ
SYMBOL cap -688 464 R0
SYMATTR InstName C9
SYMATTR Value 10µ
SYMBOL res 448 800 R0
SYMATTR InstName Rload2
SYMATTR Value .6
SYMBOL res -1040 784 R0
SYMATTR InstName Rload1
SYMATTR Value .83
SYMBOL PowerProducts\\LTC3736-1 -272 912 R0
SYMATTR InstName U1
SYMBOL cap -96 1152 R270
WINDOW 0 32 32 VTop 0
WINDOW 3 0 32 VBottom 0
SYMATTR InstName C10
SYMATTR Value 2200p
TEXT 224 1224 Left 0 !.tran 2m startup
TEXT -304 376 Center 0 ;LTC3736-1  -  2-Phase Dual Output Synchronous DC/DC Converter with Spread Spectrum and Output Tracking \nInput 3.3V     Outputs: 2.5V@3A and 1.8V@3A
TEXT -744 1288 Left 0 ;Note:\n  If the simulation model is not found please update with the "Sync Release" command from the "Tools" menu.\n  It remains the customer's responsibility to verify proper and reliable operation in the actual application.\n  Component substitution and printed circuit board layout may significantly affect circuit performance or reliability\n  Contact your local sales representative for assistance. This circuit is distributed to customers only for use with LTC parts\n  Copyright © 2006 Linear Technology Inc. All rights reserved.
