Version 4
SHEET 1 2732 1188
WIRE 160 -432 -144 -432
WIRE 448 -432 160 -432
WIRE 656 -432 448 -432
WIRE 736 -432 720 -432
WIRE -240 -416 -480 -416
WIRE 64 -416 -240 -416
WIRE 624 -416 64 -416
WIRE -480 -400 -480 -416
WIRE -144 -400 -144 -432
WIRE 448 -400 448 -432
WIRE -240 -384 -240 -416
WIRE 624 -384 624 -416
WIRE 64 -368 64 -416
WIRE 160 -368 160 -432
WIRE 256 -368 256 -384
WIRE 352 -368 352 -384
WIRE -480 -304 -480 -320
WIRE 0 -304 -192 -304
WIRE 576 -304 416 -304
WIRE -240 -208 -240 -288
WIRE -224 -208 -240 -208
WIRE -144 -208 -144 -336
WIRE -144 -208 -160 -208
WIRE 0 -208 -144 -208
WIRE 448 -208 448 -336
WIRE 448 -208 416 -208
WIRE 464 -208 448 -208
WIRE 624 -208 624 -288
WIRE 624 -208 528 -208
WIRE -528 -112 -672 -112
WIRE -448 -112 -528 -112
WIRE -400 -112 -448 -112
WIRE -272 -112 -320 -112
WIRE -240 -112 -240 -208
WIRE -240 -112 -272 -112
WIRE 0 -112 -240 -112
WIRE 624 -112 624 -208
WIRE 624 -112 416 -112
WIRE 656 -112 624 -112
WIRE 704 -112 656 -112
WIRE 832 -112 784 -112
WIRE 880 -112 832 -112
WIRE 992 -112 880 -112
WIRE -672 -96 -672 -112
WIRE -528 -96 -528 -112
WIRE -240 -96 -240 -112
WIRE 624 -96 624 -112
WIRE 880 -96 880 -112
WIRE 992 -96 992 -112
WIRE 0 -16 -192 -16
WIRE 576 -16 416 -16
WIRE -672 0 -672 -16
WIRE -528 0 -528 -32
WIRE 880 0 880 -32
WIRE 992 0 992 -16
WIRE -240 16 -240 0
WIRE 624 16 624 0
WIRE -448 80 -448 -112
WIRE -416 80 -448 80
WIRE -304 80 -352 80
WIRE -272 80 -272 -112
WIRE -176 80 -272 80
WIRE -64 80 -96 80
WIRE 0 80 -64 80
WIRE 448 80 416 80
WIRE 496 80 448 80
WIRE 656 80 656 -112
WIRE 656 80 576 80
WIRE 720 80 688 80
WIRE 832 80 832 -112
WIRE 832 80 784 80
WIRE -64 96 -64 80
WIRE 448 96 448 80
WIRE -448 176 -448 80
WIRE -416 176 -448 176
WIRE -304 176 -304 80
WIRE -304 176 -336 176
WIRE -64 176 -64 160
WIRE -64 176 -304 176
WIRE 0 176 -64 176
WIRE 448 176 448 160
WIRE 448 176 416 176
WIRE 688 176 688 80
WIRE 688 176 448 176
WIRE 720 176 688 176
WIRE 832 176 832 80
WIRE 832 176 800 176
WIRE -448 272 -448 176
WIRE 0 272 -448 272
WIRE 832 272 832 176
WIRE 832 272 416 272
WIRE 432 368 416 368
WIRE -128 464 -144 464
WIRE 0 464 -64 464
WIRE 464 464 416 464
WIRE 544 464 528 464
WIRE -272 560 -288 560
WIRE -160 560 -192 560
WIRE 0 560 -160 560
WIRE 544 560 416 560
WIRE 576 560 544 560
WIRE 688 560 656 560
WIRE -160 608 -160 560
WIRE 544 608 544 560
WIRE 0 656 -16 656
WIRE -96 752 -128 752
WIRE 0 752 -16 752
WIRE 432 752 416 752
WIRE 528 752 512 752
WIRE -256 832 -288 832
WIRE -160 832 -160 688
WIRE -160 832 -192 832
WIRE 64 832 64 816
WIRE 64 832 -160 832
WIRE 544 832 544 688
WIRE 544 832 64 832
WIRE 560 832 544 832
WIRE 656 832 640 832
WIRE 672 832 656 832
WIRE 768 832 752 832
WIRE 256 848 256 816
WIRE 352 880 352 816
WIRE 656 880 656 832
WIRE 656 880 352 880
WIRE -224 944 -256 944
WIRE -128 944 -128 752
WIRE -128 944 -160 944
WIRE 160 944 160 816
WIRE 160 944 -128 944
WIRE 256 944 256 928
WIRE 256 944 160 944
WIRE 528 944 528 752
WIRE 528 944 256 944
FLAG 256 -384 0
FLAG 352 -384 0
FLAG 736 -432 0
FLAG -240 16 0
FLAG -144 464 0
FLAG -528 0 0
FLAG -672 0 0
FLAG -672 -112 OUT1
FLAG -480 -416 IN
FLAG -480 -304 0
FLAG -288 560 0
FLAG -16 656 0
FLAG 688 560 0
FLAG 768 832 0
FLAG 544 464 0
FLAG 624 16 0
FLAG 880 0 0
FLAG 992 0 0
FLAG 992 -112 OUT0
FLAG 432 368 0
FLAG -288 832 0
FLAG -256 944 0
SYMBOL voltage -480 -416 R0
WINDOW 123 0 0 Left 2
WINDOW 39 0 0 Left 2
SYMATTR InstName V1
SYMATTR Value 15
SYMBOL cap 720 -448 R90
WINDOW 0 0 32 VBottom 2
WINDOW 3 32 32 VTop 2
SYMATTR InstName C1
SYMATTR Value 1µ
SYMBOL nmos -192 -384 M0
SYMATTR InstName Q1
SYMATTR Value RJK0305DPB
SYMBOL nmos -192 -96 M0
WINDOW 0 0 2 Right 2
WINDOW 3 25 107 Right 2
SYMATTR InstName Q2
SYMATTR Value RJK0301DPB
SYMBOL ind -304 -96 M270
WINDOW 0 32 56 VTop 2
WINDOW 3 5 56 VBottom 2
SYMATTR InstName L1
SYMATTR Value .56µ
SYMATTR SpiceLine Rser=1.61m
SYMBOL cap -160 -224 R90
WINDOW 0 0 32 VBottom 2
WINDOW 3 32 32 VTop 2
SYMATTR InstName C2
SYMATTR Value .1µ
SYMBOL schottky -160 -400 R0
SYMATTR Value CMDSH2-3
SYMATTR InstName D1
SYMATTR Description Diode
SYMATTR Type diode
SYMBOL cap -80 96 R0
SYMATTR InstName C3
SYMATTR Value .22µ
SYMBOL res -192 96 R270
WINDOW 0 32 56 VTop 2
WINDOW 3 0 56 VBottom 2
SYMATTR InstName R1
SYMATTR Value 1.58K
SYMBOL cap -64 448 R90
WINDOW 0 0 32 VBottom 2
WINDOW 3 32 32 VTop 2
WINDOW 39 53 32 VTop 2
WINDOW 40 74 32 VTop 2
SYMATTR InstName C4
SYMATTR Value 2200p
SYMATTR SpiceLine Rser=4.99K
SYMATTR SpiceLine2 Cpar=220p
SYMBOL cap -544 -96 R0
SYMATTR InstName C5
SYMATTR Value 530µ
SYMATTR SpiceLine Rser=5m
SYMBOL res -176 592 R0
SYMATTR InstName R2
SYMATTR Value 24.9K
SYMBOL res -288 576 R270
WINDOW 0 32 56 VTop 2
WINDOW 3 0 56 VBottom 2
SYMATTR InstName R3
SYMATTR Value 11.3K
SYMBOL res -112 768 R270
WINDOW 0 32 56 VTop 2
WINDOW 3 0 56 VBottom 2
SYMATTR InstName R4
SYMATTR Value 10K
SYMBOL res 240 832 R0
SYMATTR InstName R5
SYMATTR Value 4.99K
SYMBOL res 528 592 R0
SYMATTR InstName R6
SYMATTR Value 10K
SYMBOL res 672 544 R90
WINDOW 0 0 56 VBottom 2
WINDOW 3 32 56 VTop 2
SYMATTR InstName R7
SYMATTR Value 15.8K
SYMBOL res 656 816 R90
WINDOW 0 0 56 VBottom 2
WINDOW 3 32 56 VTop 2
SYMATTR InstName R8
SYMATTR Value 20K
SYMBOL res 768 816 R90
WINDOW 0 0 56 VBottom 2
WINDOW 3 32 56 VTop 2
SYMATTR InstName R9
SYMATTR Value 12.7K
SYMBOL cap 464 448 M90
WINDOW 0 0 32 VBottom 2
WINDOW 3 32 32 VTop 2
WINDOW 39 53 32 VTop 2
WINDOW 40 74 32 VTop 2
SYMATTR InstName C6
SYMATTR Value 4700p
SYMATTR SpiceLine Rser=4.99K
SYMATTR SpiceLine2 Cpar=220p
SYMBOL nmos 576 -384 R0
SYMATTR InstName Q3
SYMATTR Value RJK0305DPB
SYMBOL nmos 576 -96 R0
WINDOW 0 -3 20 Right 2
WINDOW 3 28 103 Right 2
SYMATTR InstName Q4
SYMATTR Value RJK0301DPB
SYMBOL ind 688 -96 R270
WINDOW 0 32 56 VTop 2
WINDOW 3 5 56 VBottom 2
SYMATTR InstName L2
SYMATTR Value 1µ
SYMATTR SpiceLine Rser=2.3m
SYMBOL cap 464 -224 M90
WINDOW 0 0 32 VBottom 2
WINDOW 3 32 32 VTop 2
SYMATTR InstName C7
SYMATTR Value .1µ
SYMBOL schottky 432 -400 R0
SYMATTR Value CMDSH2-3
SYMATTR InstName D2
SYMATTR Description Diode
SYMATTR Type diode
SYMBOL cap 432 96 R0
SYMATTR InstName C8
SYMATTR Value .22µ
SYMBOL res 592 96 M270
WINDOW 0 32 56 VTop 2
WINDOW 3 0 56 VBottom 2
SYMATTR InstName R10
SYMATTR Value 2K
SYMBOL cap 864 -96 R0
SYMATTR InstName C9
SYMATTR Value 530µ
SYMATTR SpiceLine Rser=5m
SYMBOL res 528 768 M270
WINDOW 0 32 56 VTop 2
WINDOW 3 0 56 VBottom 2
SYMATTR InstName R11
SYMATTR Value 10K
SYMBOL cap -192 816 R90
WINDOW 0 0 32 VBottom 2
WINDOW 3 32 32 VTop 2
SYMATTR InstName C10
SYMATTR Value 1µ
SYMBOL cap -160 928 R90
WINDOW 0 0 32 VBottom 2
WINDOW 3 32 32 VTop 2
SYMATTR InstName C11
SYMATTR Value 1µ
SYMBOL PowerProducts\\LTC3880 208 224 R0
SYMATTR InstName U1
SYMBOL res -320 160 R90
WINDOW 0 0 56 VBottom 2
WINDOW 3 32 56 VTop 2
SYMATTR InstName R12
SYMATTR Value 1.5K
SYMBOL cap -352 64 R90
WINDOW 0 0 32 VBottom 2
WINDOW 3 32 32 VTop 2
SYMATTR InstName C12
SYMATTR Value 1µ
SYMBOL res 816 160 R90
WINDOW 0 0 56 VBottom 2
WINDOW 3 32 56 VTop 2
SYMATTR InstName R13
SYMATTR Value 2K
SYMBOL cap 784 64 R90
WINDOW 0 0 32 VBottom 2
WINDOW 3 32 32 VTop 2
SYMATTR InstName C13
SYMATTR Value 1µ
SYMBOL res -688 -112 R0
SYMATTR InstName Rload1
SYMATTR Value .12
SYMBOL res 976 -112 R0
SYMATTR InstName Rload0
SYMATTR Value .22
TEXT 592 936 Left 2 !.tran  1.2m startup
TEXT 896 56 Left 1 ;Please read the following notes carefully, since the model presents different user interface\nthan the real part does.\n \n(1) All PMBus communication and memory address related functions and pins are not modeled. \n \n(2) Changes to all parameter values during the simulation running will not be in effect, unless the\nsimulation is stopped and restarted. This is different from the operation of the part, which will\n respond to the commanded changes while running. \n \n(3) Share_clk is not modeled. The default time reference of LTspice is used as the common time \nbase for all time related parameters.\n \n(4) The following parameters can be defined, by right-clicking the symbol of LTC3880. Different \nnomenclature from the datasheet is adopted here. If any value of these parameters are set beyond \nthe scope discribed in the datasheet, the resulting simulation outcomes are not meaningful.\n \n     VIN_ON & VIN_OFF -- in volts, set the unit start/stop input voltages;\n     Freq -- in Hz, sets switching frequency as one of values of 250K, 350K, \n                425K, 500K, 575K, 650K, 750K, 1000K. FREQ_CFG pin needs to float \n                (or short to VDD25), to make the value be in effect;\n     PHs_0 & PHs_1 -- in degree,  set phase angle related to SYNC signal. \n                Certain combinations are restricted as in datasheet. FREQ_CFG \n                pin needs to float (or short to VDD25), to make the value be in effect;\n     Ton0_delay & Ton0_rise; Ton1_delay & Ton1_rise -- in sec, set delay and soft-start timers for \n                channel0 and channel1. Initialization time is not modeled;\n     Toff0_delay & Toff0_fall; Toff1_delay & Toff1_fall -- in sec, set delay and soft-off timers for \n                channel0 and channel1;\n     Vout_0 & Vout_1 -- in volt, set output voltages respectively;\n     Vout0_range & Vout1_range -- set maximum output range, with value 0\n                                                      for 4.096V (CH0) and 5.5V (CH1); value 1\n                                                      for 2.75V\n     Ilim0_range & Ilim1_range -- set maximum sensed peak current range, with value 0\n                           for low 50mV, and 1 for high 75mV;\n     OC_limit0 & OC_limit1 -- set ratio of peak current limit to the maximum value defined\n                      by Ilimit_range. It must be one of values: 0.5, 0.572, 0.642, \n                      0.714, 0.786, 0.858, 0.928, 1;\n     Mode_II -- sets light load operation mode: 0 for discontinuous, 1 for Burst,\n                      2 for forced continuous;\n     Fault_response -- sets the response mode of the unit to occuring faults:\n                                 0 for ignore, 1 for latch up, 2 for Hiccup after Retry_delay time;\n     Retry_delay -- in sec, sets the timer before the unit turns on after a fault;
TEXT 176 -440 Bottom 2 ;LTC3880 - Dual Output PolyPhase Step-Down DC/DC Controller with Digital Power System Management\nHigh Efficiency Dual 500kHz 3.3V/1.8V Step-Down Converter\nInput: 6V to 24V     Output: 3.3V @ 15A & 1.8V @ 15A
TEXT -360 976 Left 2 ;Notes: \n  If the simulation model is not found please update with the "Sync Release" command from the "Tools" menu.\n  It remains the customer's responsibility to verify proper and reliable operation in the actual application.\n  Component substitution and printed circuit board layout may significantly affect circuit performance or reliability.\n  Contact your local sales representative for assistance. This circuit is distributed to customers only for use with LTC parts.\n  Copyright © 2012 Linear Technology Inc.  All rights reserved.
TEXT 992 -152 Center 2 ;3.3V @ 15A
TEXT -672 -152 Center 2 ;1.8V @ 15A
