Version 4
SHEET 1 1764 680
WIRE 320 -528 192 -528
WIRE 416 -528 320 -528
WIRE 576 -528 416 -528
WIRE 192 -512 192 -528
WIRE 320 -512 320 -528
WIRE 576 -512 576 -528
WIRE 416 -448 416 -528
WIRE 432 -448 416 -448
WIRE 752 -448 720 -448
WIRE 864 -448 832 -448
WIRE 960 -448 864 -448
WIRE 1040 -448 960 -448
WIRE 1136 -448 1040 -448
WIRE 864 -432 864 -448
WIRE 960 -432 960 -448
WIRE 1040 -432 1040 -448
WIRE 1136 -432 1136 -448
WIRE 192 -416 192 -432
WIRE 320 -416 320 -448
WIRE 336 -352 320 -352
WIRE 432 -352 400 -352
WIRE 864 -352 720 -352
WIRE 960 -352 960 -368
WIRE 960 -352 864 -352
WIRE 864 -336 864 -352
WIRE 1040 -336 1040 -368
WIRE 1136 -336 1136 -352
WIRE 400 -256 400 -352
WIRE 432 -256 400 -256
WIRE 800 -256 720 -256
WIRE 800 -240 800 -256
WIRE 864 -240 864 -256
WIRE 528 -176 528 -192
WIRE 624 -176 624 -192
WIRE 400 -144 400 -256
WIRE 800 -144 800 -160
WIRE 800 -144 400 -144
FLAG 528 -176 0
FLAG 624 -176 0
FLAG 320 -352 0
FLAG 192 -416 0
FLAG 864 -240 0
FLAG 1040 -336 0
FLAG 192 -528 IN
FLAG 1136 -448 OUT
FLAG 320 -416 0
FLAG 1136 -336 0
SYMBOL cap 400 -368 R90
WINDOW 0 0 32 VBottom 2
WINDOW 3 32 32 VTop 2
SYMATTR InstName C1
SYMATTR Value 2.2µ
SYMBOL voltage 192 -528 R0
WINDOW 123 24 126 Left 2
WINDOW 39 24 111 Left 2
SYMATTR Value 12
SYMATTR InstName V1
SYMBOL ind 736 -432 R270
WINDOW 0 32 56 VTop 2
WINDOW 3 5 56 VBottom 2
SYMATTR InstName L1
SYMATTR Value 1.5µ
SYMATTR SpiceLine Rser=10m Rpar=1K
SYMBOL res 848 -448 R0
SYMATTR InstName R1
SYMATTR Value 619K
SYMBOL cap 944 -432 R0
SYMATTR InstName C2
SYMATTR Value 15p
SYMBOL res 848 -352 R0
SYMATTR InstName R2
SYMATTR Value 84.5K
SYMBOL cap 1024 -432 R0
SYMATTR InstName C3
SYMATTR Value 47µ
SYMATTR SpiceLine Rser=5m
SYMBOL LTC3624-2 576 -352 R0
SYMATTR InstName U1
SYMBOL res 784 -256 R0
SYMATTR InstName R3
SYMATTR Value 1Meg
SYMBOL cap 304 -512 R0
SYMATTR InstName C4
SYMATTR Value 47µ
SYMBOL res 1120 -448 R0
SYMATTR Value 2.5
SYMATTR InstName Rload
TEXT 1032 -248 Left 2 !.tran 3m startup
TEXT 672 -568 Bottom 2 ;LTC3624-2 - 17V, 2A Synchronous Step-Down Regulator with 3.5µA Quiescent Current\nHigh Efficiency Buck Regulator with Ultralow Quiescent Current\nInput: 5.6V to 17V       Output: 5V @ 2A, Fsw = 2.25MHz
TEXT 48 -128 Left 2 ;Note:\n  If the simulation model is not found please update with the "Sync Release" command from the "Tools" menu.\n  It remains the customer's responsibility to verify proper and reliable operation in the actual application.\n  Component substitution and printed circuit board layout may significantly affect circuit performance or reliability.\n  Contact your local sales representative for assistance. This circuit is distributed to customers only for use with LTC parts.\n  Copyright © 2014 Linear Technology Inc. All rights reserved.
