Version 4
SHEET 1 2288 696
WIRE -48 64 -160 64
WIRE 96 64 -48 64
WIRE 304 64 176 64
WIRE -160 80 -160 64
WIRE -48 144 -48 64
WIRE -16 144 -48 144
WIRE 304 144 304 64
WIRE 304 144 272 144
WIRE -160 176 -160 160
WIRE -48 240 -48 144
WIRE -16 240 -48 240
WIRE 320 240 272 240
WIRE 416 240 320 240
WIRE 544 240 416 240
WIRE 656 240 544 240
WIRE 320 256 320 240
WIRE 416 256 416 240
WIRE 544 256 544 240
WIRE 656 256 656 240
WIRE -48 336 -48 240
WIRE -16 336 -48 336
WIRE 320 336 320 320
WIRE 320 336 272 336
WIRE 416 336 320 336
WIRE 416 352 416 336
WIRE 544 352 544 320
WIRE 656 352 656 336
WIRE -16 432 -32 432
WIRE 288 432 272 432
WIRE 416 448 416 432
FLAG -160 176 0
FLAG -32 432 0
FLAG 416 448 0
FLAG 544 352 0
FLAG 656 352 0
FLAG 288 432 0
FLAG 656 240 OUT
FLAG -160 64 IN
SYMBOL ind 80 80 R270
WINDOW 0 32 56 VTop 2
WINDOW 3 5 56 VBottom 2
SYMATTR InstName L1
SYMATTR Value 4.2µ
SYMATTR SpiceLine Rser=50m Rpar=5K
SYMBOL voltage -160 64 R0
WINDOW 0 20 15 Left 2
WINDOW 3 25 97 Left 2
SYMATTR InstName V1
SYMATTR Value 2
SYMBOL res 400 240 R0
WINDOW 3 28 84 Left 2
SYMATTR Value 876K
SYMATTR InstName R1
SYMBOL res 400 336 R0
WINDOW 3 29 81 Left 2
SYMATTR Value 499K
SYMATTR InstName R2
SYMBOL cap 528 256 R0
SYMATTR InstName C1
SYMATTR Value 22µ
SYMATTR SpiceLine Rser=3m
SYMBOL PowerProducts\\LTC3539 128 288 R0
SYMATTR InstName U1
SYMBOL cap 304 256 R0
SYMATTR InstName C2
SYMATTR Value 33p
SYMBOL res 640 240 R0
SYMATTR InstName Rload
SYMATTR Value 3.3
TEXT 560 456 Left 2 !.tran 1m startup
TEXT 304 0 Bottom 2 ;LTC3539 - DC1260A Boost Converter Demo Board\n2A Synchronous Boost Converter\nInput: 0.75V to 5V      Output: 3.3V @ 0.9A with 2.4V input
TEXT -344 488 Left 2 ;Notes: \n  If the simulation model is not found please update with the "Sync Release" command from the "Tools" menu.\n  It remains the customer's responsibility to verify proper and reliable operation in the actual application.\n  Component substitution and printed circuit board layout may significantly affect circuit performance or reliability.\n  Contact your local sales representative for assistance. This circuit is distributed to customers only for use with LTC parts.\n  Copyright © 2013 Linear Technology Inc. All rights reserved.
