Version 4
SHEET 1 2120 864
WIRE 736 -416 64 -416
WIRE 576 -368 160 -368
WIRE 848 -368 656 -368
WIRE 976 -368 848 -368
WIRE 1088 -368 976 -368
WIRE 1184 -368 1088 -368
WIRE 1248 -368 1184 -368
WIRE 976 -352 976 -368
WIRE 1088 -352 1088 -368
WIRE 1248 -352 1248 -368
WIRE 64 -272 64 -416
WIRE 64 -272 48 -272
WIRE 176 -272 64 -272
WIRE 576 -272 544 -272
WIRE 592 -272 576 -272
WIRE 688 -272 672 -272
WIRE 976 -272 976 -288
WIRE 1088 -272 1088 -288
WIRE 848 -256 848 -368
WIRE 1248 -256 1248 -272
WIRE 160 -176 160 -368
WIRE 176 -176 160 -176
WIRE 800 -176 544 -176
WIRE 736 -160 736 -416
WIRE 64 -80 64 -272
WIRE 80 -80 64 -80
WIRE 176 -80 160 -80
WIRE 736 -80 736 -96
WIRE 736 -80 544 -80
WIRE 736 -64 736 -80
WIRE 176 16 160 16
WIRE 736 16 736 0
WIRE 736 16 544 16
WIRE 848 16 848 -160
WIRE 848 16 736 16
WIRE 896 16 848 16
WIRE 1008 16 976 16
WIRE 1024 16 1008 16
WIRE 1120 16 1104 16
WIRE 1248 16 1120 16
WIRE 848 32 848 16
WIRE 1248 32 1248 16
WIRE 176 112 160 112
WIRE 800 112 544 112
WIRE 576 128 576 -272
WIRE 1248 128 1248 112
WIRE 848 144 848 128
WIRE 96 208 80 208
WIRE 176 208 160 208
WIRE 576 208 544 208
WIRE 1120 208 1120 16
WIRE 1120 208 576 208
WIRE 1184 288 1184 -368
WIRE -48 304 -96 304
WIRE 64 304 32 304
WIRE 176 304 64 304
WIRE 1008 304 1008 16
WIRE 1008 304 544 304
WIRE -96 320 -96 304
WIRE 64 320 64 304
WIRE -96 400 -96 384
WIRE 64 400 64 384
WIRE 176 400 160 400
WIRE 1184 400 1184 368
WIRE 1184 400 544 400
WIRE 1184 416 1184 400
WIRE 1184 512 1184 496
FLAG -16 -272 0
FLAG 1248 128 0
FLAG 1088 -272 0
FLAG 1248 -256 0
FLAG 1248 -368 OUT
FLAG 1248 16 IN
FLAG 1184 512 0
FLAG 80 208 0
FLAG 848 144 0
FLAG 160 112 0
FLAG 160 400 0
FLAG 160 16 0
FLAG 976 -272 0
FLAG 688 -272 0
FLAG 96 -176 0
FLAG 64 400 0
FLAG -96 400 0
SYMBOL cap 48 -288 R90
WINDOW 3 32 32 VTop 0
WINDOW 0 0 32 VBottom 0
SYMATTR Value 4.7µ
SYMATTR InstName C1
SYMATTR SpiceLine Rser=0.005
SYMBOL voltage 1248 16 R0
WINDOW 123 24 146 Left 0
WINDOW 39 24 125 Left 0
SYMATTR InstName V1
SYMATTR Value 6
SYMBOL cap 1072 -352 R0
SYMATTR InstName C2
SYMATTR Value 150µ
SYMATTR SpiceLine Rser=0.023
SYMBOL res 1168 400 R0
SYMATTR InstName R1
SYMATTR Value 12.1K
SYMBOL res 1168 272 R0
SYMATTR InstName R2
SYMATTR Value 232K
SYMBOL cap 160 192 R90
WINDOW 0 0 32 VBottom 0
WINDOW 3 32 32 VTop 0
SYMATTR InstName C3
SYMATTR Value 0.01µ
SYMBOL res 1120 32 M270
WINDOW 0 32 56 VTop 0
WINDOW 3 0 56 VBottom 0
SYMATTR InstName R3
SYMATTR Value 2.5m
SYMBOL ind 992 32 M270
WINDOW 0 32 56 VTop 0
WINDOW 3 5 56 VBottom 0
SYMATTR InstName L1
SYMATTR Value 3.3µ
SYMATTR SpiceLine Rser=1.5m
SYMBOL nmos 800 -256 R0
WINDOW 0 50 22 Left 0
WINDOW 3 51 69 Left 0
SYMATTR InstName Q1
SYMATTR Value BSC027N04LS
SYMBOL nmos 800 32 R0
WINDOW 0 50 26 Left 0
WINDOW 3 54 65 Left 0
SYMATTR InstName Q2
SYMATTR Value BSC027N04LS
SYMBOL cap 720 -64 R0
SYMATTR InstName C4
SYMATTR Value .1µ
SYMBOL diode 720 -160 R0
SYMATTR Value 1N4148
SYMATTR InstName D1
SYMBOL PowerProducts\\LTC3786 352 64 R0
SYMATTR InstName U1
SYMBOL cap 960 -352 R0
SYMATTR InstName C5
SYMATTR Value 110µ
SYMATTR SpiceLine Rser=0.001
SYMBOL cap 48 320 R0
SYMATTR InstName C6
SYMATTR Value 100p
SYMBOL cap -112 320 R0
SYMATTR InstName C7
SYMATTR Value 15n
SYMBOL res 48 288 R90
WINDOW 0 0 56 VBottom 0
WINDOW 3 32 56 VTop 0
SYMATTR InstName R4
SYMATTR Value 16.9K
SYMBOL res 688 -288 R90
WINDOW 0 0 56 VBottom 0
WINDOW 3 32 56 VTop 0
SYMATTR InstName R5
SYMATTR Value 12.1K
SYMBOL res 560 112 R0
SYMATTR InstName R6
SYMATTR Value 35.3K
SYMBOL res 672 -384 R90
WINDOW 0 0 56 VBottom 0
WINDOW 3 32 56 VTop 0
SYMATTR InstName R7
SYMATTR Value 2.2
SYMBOL cap 160 -192 R90
WINDOW 3 32 32 VTop 0
WINDOW 0 0 32 VBottom 0
SYMATTR Value 0.1µ
SYMATTR InstName C8
SYMATTR SpiceLine Rser=0.010
SYMBOL res 64 -96 M90
WINDOW 0 0 56 VBottom 0
WINDOW 3 32 56 VTop 0
SYMATTR InstName R8
SYMATTR Value 10K
SYMBOL res 1232 -368 R0
SYMATTR InstName Rload1
SYMATTR Value 8
TEXT 1256 584 Left 0 !.tran 1.5m
TEXT 648 -424 Bottom 0 ;LTC3786 - Low IQ Synchronous Boost Controller\nHigh Current Single Output Synchronous Boost Supply\nInput: 5V-24V      Output: 24V @3A-5A
TEXT -80 456 Left 0 ;Notes:\n \n  C15 should be 0.1µF, not 0.01µF.  It is reduced in value here to speed up the time to simulate a soft start cycle.\n \n  If the simulation model is not found please update with the "Sync Release" command from the "Tools" menu.\n  It remains the customer's responsibility to verify proper and reliable operation in the actual application.\n  Component substitution and printed circuit board layout may significantly affect circuit performance or reliability.\n  Contact your local sales representative for assistance. This circuit is distributed to customers only for use with LTC parts.\n  Copyright © 2011 Linear Technology Inc. All rights reserved.
