Version 4
SHEET 1 3156 1080
WIRE 528 -400 -336 -400
WIRE 1264 -400 528 -400
WIRE 128 -384 -80 -384
WIRE 848 -384 128 -384
WIRE 960 -384 848 -384
WIRE 1120 -384 960 -384
WIRE 224 -368 -128 -368
WIRE 960 -368 960 -384
WIRE 1120 -368 1120 -384
WIRE -80 -336 -80 -384
WIRE 128 -336 128 -384
WIRE 224 -336 224 -368
WIRE -208 -272 -224 -272
WIRE -128 -272 -128 -368
WIRE -128 -272 -144 -272
WIRE 464 -272 448 -272
WIRE 528 -272 528 -400
WIRE 960 -272 960 -304
WIRE 1120 -272 1120 -288
WIRE -432 -176 -640 -176
WIRE -336 -176 -336 -400
WIRE -336 -176 -432 -176
WIRE -256 -176 -336 -176
WIRE -128 -176 -128 -272
WIRE -80 -176 -80 -256
WIRE 0 -176 -80 -176
WIRE 528 -176 528 -192
WIRE 528 -176 448 -176
WIRE 1296 -176 896 -176
WIRE 1360 -176 1296 -176
WIRE 1472 -176 1360 -176
WIRE 1552 -176 1472 -176
WIRE -432 -160 -432 -176
WIRE -336 -160 -336 -176
WIRE -256 -160 -256 -176
WIRE 528 -160 528 -176
WIRE 1360 -160 1360 -176
WIRE 1472 -160 1472 -176
WIRE 1552 -160 1552 -176
WIRE 896 -112 896 -176
WIRE 0 -80 -208 -80
WIRE 1360 -80 1360 -96
WIRE -432 -64 -432 -96
WIRE -336 -64 -336 -96
WIRE 1472 -64 1472 -96
WIRE 1552 -64 1552 -80
WIRE 528 -48 528 -80
WIRE -128 16 -128 -112
WIRE 0 16 -128 16
WIRE -128 32 -128 16
WIRE 896 32 896 -48
WIRE 928 32 896 32
WIRE 1104 32 1008 32
WIRE 1136 32 1104 32
WIRE 1264 32 1264 -400
WIRE 1264 32 1216 32
WIRE 848 64 848 -384
WIRE 848 64 528 64
WIRE -736 112 -1152 112
WIRE -560 112 -736 112
WIRE -480 112 -560 112
WIRE -464 112 -480 112
WIRE -368 112 -384 112
WIRE -352 112 -368 112
WIRE -256 112 -256 -64
WIRE -256 112 -272 112
WIRE -128 112 -128 96
WIRE -128 112 -256 112
WIRE 0 112 -128 112
WIRE 480 112 448 112
WIRE -1152 128 -1152 112
WIRE -736 128 -736 112
WIRE -256 128 -256 112
WIRE 528 128 528 64
WIRE 560 128 528 128
WIRE 848 128 848 64
WIRE 848 128 816 128
WIRE 896 128 896 32
WIRE -560 144 -560 112
WIRE 0 208 -208 208
WIRE 560 208 448 208
WIRE 848 208 816 208
WIRE -736 224 -736 192
WIRE -560 224 -560 208
WIRE -1152 240 -1152 208
WIRE -256 256 -256 224
WIRE 560 288 544 288
WIRE 896 288 896 224
WIRE 896 288 816 288
WIRE -480 304 -480 112
WIRE 0 304 -480 304
WIRE 496 304 448 304
WIRE 896 320 896 288
WIRE 496 368 496 304
WIRE 1264 368 1264 32
WIRE 1264 368 496 368
WIRE -640 384 -640 -176
WIRE 1296 384 1296 -176
WIRE -368 400 -368 112
WIRE 0 400 -368 400
WIRE 1104 400 1104 32
WIRE 1104 400 448 400
WIRE -640 496 -640 464
WIRE 0 496 -640 496
WIRE 1296 496 1296 464
WIRE 1296 496 448 496
WIRE -640 512 -640 496
WIRE 1296 512 1296 496
WIRE -256 592 -288 592
WIRE 0 592 -192 592
WIRE 640 592 448 592
WIRE 752 592 704 592
WIRE -640 608 -640 592
WIRE 1296 608 1296 592
WIRE -80 688 -96 688
WIRE 0 688 -16 688
WIRE 464 688 448 688
WIRE 544 688 528 688
WIRE 128 768 128 752
WIRE 224 768 224 752
WIRE 320 768 320 752
FLAG -224 -272 0
FLAG 1120 -272 0
FLAG -256 256 0
FLAG -336 -64 0
FLAG -640 -176 OUT1
FLAG -96 688 0
FLAG 224 768 0
FLAG 320 768 0
FLAG 128 768 0
FLAG -288 592 0
FLAG 896 320 0
FLAG 1360 -80 0
FLAG 1552 -64 0
FLAG 1552 -176 OUT
FLAG 1296 608 0
FLAG 544 688 0
FLAG 752 592 0
FLAG 464 -272 0
FLAG -736 224 0
FLAG -560 224 0
FLAG 1472 -64 0
FLAG -432 -64 0
FLAG 960 -272 0
FLAG -1152 240 0
FLAG -1152 112 IN
FLAG 544 288 0
FLAG 480 112 0
FLAG 528 -48 0
FLAG -640 608 0
SYMBOL cap -144 -288 R90
WINDOW 0 0 32 VBottom 2
WINDOW 3 32 32 VTop 2
SYMATTR InstName C1
SYMATTR Value 4.7µ
SYMBOL voltage 1120 -384 R0
WINDOW 123 24 126 Left 2
WINDOW 39 24 111 Left 2
SYMATTR InstName V2
SYMATTR Value 8
SYMBOL res -480 128 R270
WINDOW 0 32 56 VTop 2
WINDOW 3 0 56 VBottom 2
SYMATTR InstName R2
SYMATTR Value 3m
SYMBOL ind -368 128 R270
WINDOW 0 32 56 VTop 2
WINDOW 3 5 56 VBottom 2
SYMATTR InstName L1
SYMATTR Value 6.8µ
SYMATTR SpiceLine Rser=0.01
SYMBOL nmos -208 -160 M0
WINDOW 0 0 9 Right 2
WINDOW 3 38 119 Right 2
SYMATTR InstName Q1
SYMATTR Value Si4840DY
SYMBOL nmos -208 128 M0
WINDOW 0 -3 31 Right 2
WINDOW 3 34 105 Right 2
SYMATTR InstName Q2
SYMATTR Value Si4840DY
SYMBOL cap -144 32 R0
SYMATTR InstName C2
SYMATTR Value .1µ
SYMBOL schottky -144 -176 R0
SYMATTR InstName D1
SYMATTR Value MBR0540
SYMATTR Description Diode
SYMATTR Type diode
SYMBOL cap -352 -160 R0
WINDOW 3 36 35 Left 2
WINDOW 40 24 58 Left 2
SYMATTR Value 22µ
SYMATTR SpiceLine2 x4
SYMATTR InstName C3
SYMATTR SpiceLine Rser=.003
SYMBOL cap -16 672 R90
WINDOW 0 0 32 VBottom 2
WINDOW 3 32 32 VTop 2
SYMATTR InstName C4
SYMATTR Value .01µ
SYMBOL cap -192 576 R90
WINDOW 0 0 32 VBottom 2
WINDOW 3 32 32 VTop 2
WINDOW 39 62 30 VTop 2
SYMATTR InstName C5
SYMATTR Value 15n
SYMATTR SpiceLine Rser=15k Cpar=100p
SYMBOL res 1232 48 M270
WINDOW 0 32 56 VTop 2
WINDOW 3 0 56 VBottom 2
SYMATTR InstName R5
SYMATTR Value 12m
SYMBOL ind 1024 48 M270
WINDOW 0 32 56 VTop 2
WINDOW 3 5 56 VBottom 2
SYMATTR InstName L2
SYMATTR Value 100µ
SYMATTR SpiceLine Rser=0.1
SYMBOL nmos 848 128 R0
WINDOW 0 67 22 Left 2
WINDOW 3 66 65 Left 2
SYMATTR InstName Q4
SYMATTR Value BSC320N20NS3
SYMBOL cap 1344 -160 R0
WINDOW 3 39 31 Left 2
WINDOW 40 24 56 Left 2
SYMATTR Value 0.47µ
SYMATTR SpiceLine2 x4
SYMATTR InstName C7
SYMATTR SpiceLine Rser=.003
SYMBOL res 1280 496 R0
SYMATTR InstName R6
SYMATTR Value 6.04K
SYMBOL res 1280 368 R0
SYMATTR InstName R7
SYMATTR Value 698K
SYMBOL cap 464 704 R270
WINDOW 3 0 32 VBottom 2
WINDOW 0 32 32 VTop 2
SYMATTR Value .02µ
SYMATTR InstName C8
SYMBOL cap 640 576 M90
WINDOW 0 0 32 VBottom 2
WINDOW 3 32 32 VTop 2
WINDOW 39 63 31 VTop 2
SYMATTR InstName C9
SYMATTR Value 15n
SYMATTR SpiceLine Rser=10K Cpar=100p
SYMBOL LTC3788-1 224 208 R0
SYMATTR InstName U1
SYMBOL res 1536 -176 R0
SYMATTR InstName Rload
SYMATTR Value 420
SYMBOL cap -752 128 R0
WINDOW 3 37 33 Left 2
WINDOW 39 24 55 Left 2
SYMATTR Value 22µ
SYMATTR SpiceLine x4
SYMATTR InstName C10
SYMBOL cap -576 144 R0
SYMATTR InstName C11
SYMATTR Value 220µ
SYMBOL cap -448 -160 R0
SYMATTR InstName C13
SYMATTR Value 150µ
SYMATTR SpiceLine Rser=.01
SYMBOL cap 944 -368 R0
SYMATTR Value 4.7µ
SYMATTR InstName C15
SYMBOL voltage -1152 112 R0
WINDOW 123 24 126 Left 2
WINDOW 39 24 111 Left 2
SYMATTR InstName V1
SYMATTR Value PWL(0 0 0.1m 12 4.5m 12 6m 3)
SYMBOL LTC4440-5 688 208 R0
SYMATTR InstName U2
SYMBOL res 512 -288 R0
SYMATTR InstName R8
SYMATTR Value 309k
SYMBOL res 512 -176 R0
SYMATTR InstName R9
SYMATTR Value 12.1k
SYMBOL diode 880 -48 M180
WINDOW 0 24 64 Left 2
WINDOW 3 24 0 Left 2
SYMATTR InstName D2
SYMATTR Value MURS120
SYMBOL polcap 1456 -160 R0
SYMATTR InstName C6
SYMATTR Value 47µ
SYMATTR SpiceLine Rser=0.02
SYMBOL res -656 496 R0
SYMATTR InstName R1
SYMATTR Value 12.1K
SYMBOL res -656 368 R0
SYMATTR InstName R10
SYMATTR Value 374K
SYMBOL res -96 -352 R0
SYMATTR InstName R3
SYMATTR Value 1K
TEXT 800 696 Left 2 !.tran 8m startup
TEXT 248 -424 Bottom 2 ;LTC3788-1 - 2-Phase, Dual Output Synchronous Boost Controller\nLTC4440-5 - High Speed, High Voltage, High Side Gate Driver\nTwo-Stage High Voltage Boost Converter\nInput: 3V to 36V      Output: 140V @ 1A (Iout is reduced for Vin < 10V) , Fsw = 350kHz
TEXT -312 784 Left 2 ;Notes:\n  SS capacitors have been reduced to speed up simulation time. Typical values should be 0.1µF.\n  If the simulation model is not found please update with the "Sync Release" command from the "Tools" menu.\n  It remains the customer's responsibility to verify proper and reliable operation in the actual application.\n  Component substitution and printed circuit board layout may significantly affect circuit performance or reliability.\n  Contact your local sales representative for assistance. This circuit is distributed to customers only for use with LTC parts.\n  Copyright © 2014 Linear Technology Inc. All rights reserved.
