Version 4
SHEET 1 1912 1168
WIRE -352 -432 -480 -432
WIRE 64 -432 -352 -432
WIRE 672 -432 64 -432
WIRE -480 -416 -480 -432
WIRE 464 -416 -48 -416
WIRE 736 -416 464 -416
WIRE -176 -400 -240 -400
WIRE -112 -400 -176 -400
WIRE -32 -400 -112 -400
WIRE 208 -400 -32 -400
WIRE 496 -400 208 -400
WIRE 576 -400 496 -400
WIRE 736 -400 736 -416
WIRE -240 -384 -240 -400
WIRE 64 -368 64 -432
WIRE 208 -368 208 -400
WIRE 352 -368 352 -384
WIRE -480 -320 -480 -336
WIRE -112 -320 -112 -400
WIRE 576 -320 576 -400
WIRE -240 -304 -240 -320
WIRE -48 -304 -48 -416
WIRE -16 -304 -48 -304
WIRE 464 -304 464 -416
WIRE 464 -304 432 -304
WIRE 496 -304 496 -400
WIRE 736 -304 736 -320
WIRE -112 -208 -112 -240
WIRE -16 -208 -112 -208
WIRE 496 -208 496 -224
WIRE 496 -208 432 -208
WIRE -352 -192 -352 -432
WIRE -176 -192 -176 -400
WIRE 672 -192 672 -432
WIRE -16 -112 -304 -112
WIRE 624 -112 432 -112
WIRE -464 -16 -496 -16
WIRE -352 -16 -352 -96
WIRE -352 -16 -384 -16
WIRE -272 -16 -352 -16
WIRE -176 -16 -176 -128
WIRE -176 -16 -208 -16
WIRE -16 -16 -176 -16
WIRE 576 -16 576 -256
WIRE 576 -16 432 -16
WIRE 592 -16 576 -16
WIRE 672 -16 672 -96
WIRE 672 -16 656 -16
WIRE 704 -16 672 -16
WIRE 848 -16 784 -16
WIRE -352 80 -352 -16
WIRE -16 80 -352 80
WIRE 672 80 672 -16
WIRE 672 80 432 80
WIRE -352 96 -352 80
WIRE 672 96 672 80
WIRE -16 176 -304 176
WIRE 624 176 432 176
WIRE -352 208 -352 192
WIRE 672 208 672 192
WIRE -496 272 -496 -16
WIRE -16 272 -496 272
WIRE 848 272 848 -16
WIRE 848 272 432 272
WIRE -496 368 -496 352
WIRE -304 368 -496 368
WIRE -16 368 -304 368
WIRE 848 368 848 352
WIRE 848 368 432 368
WIRE -304 384 -304 368
WIRE -496 464 -496 368
WIRE -496 464 -624 464
WIRE -432 464 -496 464
WIRE -304 464 -304 448
WIRE -304 464 -352 464
WIRE -16 464 -304 464
WIRE 688 464 432 464
WIRE 736 464 688 464
WIRE 848 464 848 368
WIRE 848 464 816 464
WIRE 960 464 848 464
WIRE -624 480 -624 464
WIRE -304 480 -304 464
WIRE 688 480 688 464
WIRE 848 480 848 464
WIRE 960 480 960 464
WIRE -496 496 -496 464
WIRE -176 560 -192 560
WIRE -16 560 -112 560
WIRE 512 560 432 560
WIRE 592 560 576 560
WIRE -624 576 -624 560
WIRE -496 576 -496 560
WIRE -304 576 -304 560
WIRE 688 576 688 560
WIRE 848 576 848 544
WIRE 960 576 960 560
WIRE -112 656 -144 656
WIRE -16 656 -48 656
WIRE 464 656 432 656
WIRE 560 656 528 656
WIRE -32 752 -32 -400
WIRE -16 752 -32 752
WIRE 464 752 432 752
WIRE 64 928 64 912
WIRE 208 928 208 912
WIRE 352 928 352 912
FLAG 672 208 0
FLAG 352 928 0
FLAG 64 928 0
FLAG 688 576 0
FLAG 560 656 0
FLAG 592 560 0
FLAG -352 208 0
FLAG -304 576 0
FLAG -144 656 0
FLAG -480 -320 0
FLAG -240 -304 0
FLAG 464 752 0
FLAG 848 576 0
FLAG -496 576 0
FLAG -192 560 0
FLAG -624 576 0
FLAG 960 576 0
FLAG 208 928 0
FLAG -480 -432 IN
FLAG -624 464 OUT1
FLAG 960 464 OUT2
FLAG 736 -304 0
FLAG 736 -416 RUN
SYMBOL voltage -480 -432 R0
SYMATTR InstName V1
SYMATTR Value 10
SYMBOL cap 592 0 R270
WINDOW 0 32 32 VTop 0
WINDOW 3 0 32 VBottom 0
SYMATTR InstName C1
SYMATTR Value .1µ
SYMBOL ind 688 0 R270
WINDOW 0 32 56 VTop 0
WINDOW 3 5 56 VBottom 0
SYMATTR InstName L1
SYMATTR Value 7.2µ
SYMATTR SpiceLine Rpar=2K
SYMBOL res 832 256 R0
SYMATTR InstName R1
SYMATTR Value .008
SYMBOL schottky 560 -320 R0
WINDOW 3 24 69 Left 0
SYMATTR Value BAT54
SYMATTR InstName D1
SYMATTR Description Diode
SYMATTR Type diode
SYMBOL res 832 448 R90
WINDOW 0 0 56 VBottom 0
WINDOW 3 32 56 VTop 0
SYMATTR InstName R2
SYMATTR Value 976K
SYMBOL res 672 464 R0
SYMATTR InstName R3
SYMATTR Value 102K
SYMBOL cap 464 640 M90
WINDOW 0 0 32 VBottom 0
WINDOW 3 32 32 VTop 0
SYMATTR InstName C2
SYMATTR Value .001µ
SYMBOL nmos -304 -192 M0
WINDOW 0 41 -8 Right 0
WINDOW 3 42 101 Right 0
SYMATTR InstName Q1
SYMATTR Value BSZ097N04LS
SYMBOL cap -208 0 M270
WINDOW 0 32 32 VTop 0
WINDOW 3 0 32 VBottom 0
SYMATTR InstName C3
SYMATTR Value .1µ
SYMBOL ind -368 0 M270
WINDOW 0 32 56 VTop 0
WINDOW 3 5 56 VBottom 0
SYMATTR InstName L2
SYMATTR Value 3.2µ
SYMATTR SpiceLine Rpar=2K
SYMBOL res -512 256 R0
WINDOW 0 41 45 Left 0
SYMATTR InstName R4
SYMATTR Value .005
SYMBOL schottky -192 -192 R0
WINDOW 3 32 63 Left 0
SYMATTR Value BAT54
SYMATTR InstName D2
SYMATTR Description Diode
SYMATTR Type diode
SYMBOL res -448 448 M90
WINDOW 0 0 56 VBottom 0
WINDOW 3 32 56 VTop 0
SYMATTR InstName R5
SYMATTR Value 182K
SYMBOL res -320 464 R0
SYMATTR InstName R6
SYMATTR Value 57.6K
SYMBOL cap -48 640 R90
WINDOW 0 0 32 VBottom 0
WINDOW 3 32 32 VTop 0
SYMATTR InstName C4
SYMATTR Value .001µ
SYMBOL cap -256 -384 R0
SYMATTR InstName C5
SYMATTR Value 4.7µ
SYMBOL res -128 -336 R0
SYMATTR InstName R7
SYMATTR Value 100K
SYMBOL res 480 -320 R0
WINDOW 3 27 86 Left 0
SYMATTR Value 100K
SYMATTR InstName R8
SYMBOL cap 832 480 R0
SYMATTR InstName C6
SYMATTR Value 68µ
SYMATTR SpiceLine Rser=45m
SYMBOL cap -512 496 R0
WINDOW 3 25 61 Left 0
SYMATTR Value 220µ
SYMATTR InstName C7
SYMATTR SpiceLine Rser=15m
SYMBOL cap -112 576 M270
WINDOW 0 32 32 VTop 0
WINDOW 3 0 32 VBottom 0
WINDOW 39 -17 42 VBottom 0
SYMATTR InstName C8
SYMATTR Value 4.7n
SYMATTR SpiceLine Rser=8.2K Cpar=22p
SYMBOL LTC3857 208 272 R0
SYMATTR InstName U1
SYMBOL nmos -304 96 M0
WINDOW 0 -1 16 Right 0
WINDOW 3 24 106 Right 0
SYMATTR InstName Q2
SYMATTR Value BSZ097N04LS
SYMBOL voltage 736 -416 R0
SYMATTR InstName V2
SYMATTR Value 5
SYMBOL cap 512 576 R270
WINDOW 0 32 32 VTop 0
WINDOW 3 0 32 VBottom 0
WINDOW 39 -17 42 VBottom 0
SYMATTR InstName C9
SYMATTR Value 3.3n
SYMATTR SpiceLine Rser=15K Cpar=47p
SYMBOL res -640 464 R0
SYMATTR InstName Rload1
SYMATTR Value .66
SYMBOL res 944 464 R0
SYMATTR InstName Rload2
SYMATTR Value 3
SYMBOL cap -320 384 R0
SYMATTR InstName C10
SYMATTR Value 10p
SYMBOL nmos 624 -192 R0
SYMATTR InstName Q3
SYMATTR Value BSZ097N04LS
SYMBOL nmos 624 96 R0
SYMATTR InstName Q4
SYMATTR Value BSZ097N04LS
TEXT 712 704 Left 0 !.tran 1m startup
TEXT 120 -456 Bottom 0 ;LTC3857 - Low IQ, Dual Output, Synchronous Buck Controller\nInput: 4.5V to 36V, Output1: 3.3V @ 5A, Output2: 8.5V @ 3A
TEXT -344 928 Left 0 ;Notes:\n \n  C2, C4 should be 0.1µF, not 0.001µF.  It is reduced in value here to speed up the time to simulate a soft start cycle.\n \n  If the simulation model is not found please update with the "Sync Release" command from the "Tools" menu.\n  It remains the customer's responsibility to verify proper and reliable operation in the actual application.\n  Component substitution and printed circuit board layout may significantly affect circuit performance or reliability.\n  Contact your local sales representative for assistance. This circuit is distributed to customers only for use with LTC parts.\n  Copyright © 2011 Linear Technology Inc. All rights reserved.
