Version 4
SHEET 1 2312 1228
WIRE -368 -32 -480 -32
WIRE -272 -32 -368 -32
WIRE -64 -32 -272 -32
WIRE 240 -32 -64 -32
WIRE 640 -32 240 -32
WIRE -480 -16 -480 -32
WIRE 112 -16 -80 -16
WIRE 432 -16 112 -16
WIRE -368 0 -368 -32
WIRE -272 0 -272 -32
WIRE 640 0 640 -32
WIRE 112 16 112 -16
WIRE 240 16 240 -32
WIRE -480 80 -480 64
WIRE -368 80 -368 64
WIRE -272 80 -272 64
WIRE -144 80 -160 80
WIRE -80 80 -80 -16
WIRE -48 80 -80 80
WIRE 592 80 400 80
WIRE 432 96 432 -16
WIRE 432 176 432 160
WIRE 432 176 400 176
WIRE 560 176 432 176
WIRE 640 176 640 96
WIRE 640 176 624 176
WIRE 640 272 640 176
WIRE 640 272 400 272
WIRE 688 272 640 272
WIRE 784 272 768 272
WIRE 880 272 864 272
WIRE 944 272 880 272
WIRE 1056 272 944 272
WIRE 1168 272 1056 272
WIRE 640 288 640 272
WIRE 1168 288 1168 272
WIRE 1056 304 1056 272
WIRE 944 336 944 272
WIRE -64 368 -64 -32
WIRE -48 368 -64 368
WIRE 592 368 400 368
WIRE 1056 384 1056 368
WIRE 1168 384 1168 368
WIRE 640 400 640 384
WIRE -64 464 -64 368
WIRE -48 464 -64 464
WIRE 944 464 944 416
WIRE 944 464 400 464
WIRE 944 480 944 464
WIRE -80 560 -80 80
WIRE -48 560 -80 560
WIRE 448 560 400 560
WIRE 528 560 448 560
WIRE 784 560 784 272
WIRE 784 560 608 560
WIRE 448 576 448 560
WIRE 944 576 944 560
WIRE -144 656 -176 656
WIRE -48 656 -64 656
WIRE 448 656 448 640
WIRE 448 656 400 656
WIRE 528 656 448 656
WIRE 880 656 880 272
WIRE 880 656 608 656
WIRE -144 752 -176 752
WIRE -48 752 -80 752
WIRE 432 752 400 752
WIRE 432 768 432 752
WIRE -208 848 -240 848
WIRE -112 848 -128 848
WIRE -48 848 -112 848
WIRE 432 848 432 832
WIRE 432 848 400 848
WIRE -240 864 -240 848
WIRE -112 864 -112 848
WIRE 112 928 112 912
WIRE 240 928 240 912
WIRE -240 944 -240 928
WIRE -112 944 -112 928
FLAG 640 400 0
FLAG 1056 384 0
FLAG 1168 384 0
FLAG 944 576 0
FLAG 1168 272 OUT
FLAG -160 80 0
FLAG -176 752 0
FLAG -480 80 0
FLAG -480 -32 IN
FLAG -176 656 0
FLAG 112 928 0
FLAG 240 928 0
FLAG -368 80 0
FLAG -272 80 0
FLAG -240 944 0
FLAG -112 944 0
SYMBOL nmos 592 0 R0
SYMATTR InstName Q1
SYMATTR Value IRF6623
SYMBOL ind 672 288 R270
WINDOW 0 32 56 VTop 0
WINDOW 3 5 56 VBottom 0
SYMATTR InstName L1
SYMATTR Value .4µ
SYMATTR SpiceLine Rser=1.4m
SYMBOL polcap 1040 304 R0
WINDOW 3 37 33 Left 0
WINDOW 123 28 64 Left 0
WINDOW 0 28 3 Left 0
SYMATTR Value 470µ
SYMATTR Value2 X2
SYMATTR InstName C1
SYMATTR SpiceLine V=6.3 Irms=4 Rser=0.01 Lser=0 mfg="KEMET" pn="T520Y477M006ATE010" type="Tantalum"
SYMATTR Description Capacitor
SYMATTR Type cap
SYMBOL res 928 320 R0
SYMATTR InstName R1
SYMATTR Value 17.4K
SYMBOL res 928 464 R0
SYMATTR InstName R2
SYMATTR Value 20K
SYMBOL cap 560 192 R270
WINDOW 0 32 32 VTop 0
WINDOW 3 0 32 VBottom 0
SYMATTR InstName C2
SYMATTR Value .1µ
SYMBOL cap -80 64 R90
WINDOW 0 0 32 VBottom 0
WINDOW 3 32 32 VTop 0
SYMATTR InstName C3
SYMATTR Value 4.7µ
SYMBOL cap -80 736 R90
WINDOW 0 0 32 VBottom 0
WINDOW 3 32 32 VTop 0
SYMATTR InstName C5
SYMATTR Value .001µ
SYMBOL voltage -480 -32 R0
WINDOW 3 20 93 Left 0
SYMATTR Value 3.3
SYMATTR InstName V1
SYMBOL schottky 416 96 R0
WINDOW 3 21 62 Left 0
SYMATTR Value CMDSH2-3
SYMATTR InstName D1
SYMATTR Description Diode
SYMATTR Type diode
SYMBOL nmos 592 288 R0
SYMATTR InstName Q2
SYMATTR Value IRF6623
SYMBOL res 624 544 R90
WINDOW 0 0 56 VBottom 0
WINDOW 3 32 56 VTop 0
SYMATTR InstName R3
SYMATTR Value 100
SYMBOL cap 432 576 R0
WINDOW 3 24 56 Left 0
WINDOW 39 24 85 Left 0
SYMATTR Value 1000p
SYMATTR InstName C7
SYMBOL res 1152 272 R0
SYMATTR InstName Rload
SYMATTR Value 0.1
SYMBOL PowerProducts\\LTC3852 176 464 R0
SYMATTR InstName U1
SYMBOL res -48 640 R90
WINDOW 0 0 56 VBottom 0
WINDOW 3 32 56 VTop 0
SYMATTR InstName R4
SYMATTR Value 82.5K
SYMBOL cap 416 768 R0
SYMATTR InstName C8
SYMATTR Value 2.2µ
SYMBOL polcap -384 0 R0
SYMATTR InstName C6
SYMATTR Value 220µ
SYMBOL cap -288 0 R0
SYMATTR InstName C9
SYMATTR Value 10µ
SYMBOL res 880 256 R90
WINDOW 0 0 56 VBottom 0
WINDOW 3 32 56 VTop 0
SYMATTR InstName R5
SYMATTR Value 0.002
SYMBOL res 624 640 R90
WINDOW 0 0 56 VBottom 0
WINDOW 3 32 56 VTop 0
SYMATTR InstName R6
SYMATTR Value 100
SYMBOL res -112 832 R90
WINDOW 0 0 46 VBottom 0
WINDOW 3 32 42 VTop 0
SYMATTR InstName R7
SYMATTR Value 5.9K
SYMBOL cap -256 864 R0
SYMATTR InstName C4
SYMATTR Value 2200p
SYMBOL cap -128 864 R0
SYMATTR InstName C10
SYMATTR Value 150p
TEXT 760 776 Left 0 !.tran 1.5m startup
TEXT -368 976 Left 0 ;Note:\n  If the simulation model is not found please update with the "Sync Release" command from the "Tools" menu.\n  It remains the customer's responsibility to verify proper and reliable operation in the actual application.\n  Component substitution and printed circuit board layout may significantly affect circuit performance or reliability\n  Contact your local sales representative for assistance. This circuit is distributed to customers only for use with LTC parts\n  Copyright © 2011 Linear Technology Inc. All rights reserved.
TEXT 240 -48 Bottom 0 ;LTC3852 - Low Input Voltage, Synchronous Step-Down DC/DC Controller\nHigh Efficiency 3.3V to 1.5V @ 15A Step-Down Converter\nInput: 2.7V to 5.5V              Output: 1.5V @ 15A
