Version 4
SHEET 1 2280 832
WIRE 384 -32 272 -32
WIRE 528 -32 384 -32
WIRE 688 -32 528 -32
WIRE 1024 -32 688 -32
WIRE 272 -16 272 -32
WIRE 384 -16 384 -32
WIRE 688 -16 688 -32
WIRE 528 0 528 -32
WIRE 272 80 272 64
WIRE 384 80 384 48
WIRE 688 80 688 64
WIRE 784 80 688 80
WIRE 864 80 848 80
WIRE 1024 80 1024 -32
WIRE 528 96 528 80
WIRE 688 96 688 80
WIRE 976 160 784 160
WIRE 432 224 400 224
WIRE 816 224 784 224
WIRE 1024 224 1024 176
WIRE 1024 224 816 224
WIRE 1088 224 1024 224
WIRE 1232 224 1168 224
WIRE 1328 224 1232 224
WIRE 1440 224 1328 224
WIRE 1568 224 1440 224
WIRE 1568 240 1568 224
WIRE 1232 256 1232 224
WIRE 1328 256 1328 224
WIRE 1440 256 1440 224
WIRE 352 288 336 288
WIRE 432 288 416 288
WIRE 816 288 784 288
WIRE 1024 336 1024 224
WIRE 432 352 144 352
WIRE 816 352 784 352
WIRE 1328 352 1328 320
WIRE 1440 352 1440 320
WIRE 1568 352 1568 320
WIRE 1232 368 1232 336
WIRE 1232 368 1200 368
WIRE 1232 384 1232 368
WIRE 256 416 192 416
WIRE 368 416 336 416
WIRE 432 416 368 416
WIRE 976 416 784 416
WIRE 192 432 192 416
WIRE 368 432 368 416
WIRE 1024 448 1024 432
WIRE 1200 480 1200 368
WIRE 1200 480 784 480
WIRE 1232 480 1232 464
WIRE 816 496 816 352
WIRE 912 496 816 496
WIRE 192 512 192 496
WIRE 368 512 368 496
WIRE 816 512 816 496
WIRE 528 560 528 544
WIRE 688 560 688 544
WIRE 144 608 144 352
WIRE 912 608 912 496
WIRE 912 608 144 608
FLAG 528 560 0
FLAG 688 560 0
FLAG 1024 448 0
FLAG 816 576 0
FLAG 1568 352 0
FLAG 1232 480 0
FLAG 1328 352 0
FLAG 192 512 0
FLAG 272 80 0
FLAG 336 288 0
FLAG 384 80 0
FLAG 272 -32 IN
FLAG 1440 352 0
FLAG 864 80 0
FLAG 1568 224 OUT
FLAG 400 224 0
FLAG 368 512 0
SYMBOL NMOS 976 336 R0
SYMATTR InstName Q1
SYMATTR Value RJK0301DPB
SYMBOL RES 512 -16 R0
SYMATTR InstName R1
SYMATTR Value 402K
SYMBOL res 1216 240 R0
SYMATTR InstName R2
SYMATTR Value 10K
SYMBOL res 1216 368 R0
SYMATTR InstName R3
SYMATTR Value 10K
SYMBOL schottky 800 352 M180
WINDOW 0 49 37 Left 0
WINDOW 3 47 11 Left 0
SYMATTR InstName D1
SYMATTR Value CMDSH2-3
SYMBOL cap 800 512 R0
WINDOW 3 41 47 Left 0
WINDOW 0 44 17 Left 0
SYMATTR Value 4.7µ
SYMATTR InstName C1
SYMBOL nmos 976 80 R0
SYMATTR InstName Q2
SYMATTR Value RJK0305DPB
SYMBOL ind 1072 240 R270
WINDOW 0 32 56 VTop 0
WINDOW 3 5 56 VBottom 0
SYMATTR InstName L1
SYMATTR Value .36µ
SYMATTR SpiceLine Rser=1.4m Rpar=100
SYMBOL polcap 1312 256 R0
WINDOW 40 24 85 Left 0
SYMATTR SpiceLine2 m=2
SYMATTR InstName Cout1
SYMATTR Value 330µ
SYMATTR SpiceLine Rser=9m
SYMBOL VOLTAGE 272 -32 R0
WINDOW 123 0 0 Left 0
WINDOW 39 0 0 Left 0
SYMATTR InstName V1
SYMATTR Value 12
SYMBOL cap 416 272 R90
WINDOW 0 0 32 VBottom 0
WINDOW 3 32 32 VTop 0
SYMATTR InstName C4
SYMATTR Value 1n
SYMBOL cap 800 224 R0
WINDOW 0 28 17 Left 0
WINDOW 3 26 48 Left 0
SYMATTR InstName C5
SYMATTR Value .1µ
SYMBOL PowerProducts\\LTC3879 608 320 R0
SYMATTR InstName U1
SYMBOL res 1552 224 R0
SYMATTR InstName Rload
SYMATTR Value 80m
SYMBOL cap 1424 256 R0
WINDOW 3 27 54 Left 0
WINDOW 40 34 82 Left 0
SYMATTR Value 100µ
SYMATTR SpiceLine2 m=2
SYMATTR InstName Cout2
SYMATTR SpiceLine Rser=2m
SYMBOL cap 176 432 R0
SYMATTR InstName C2
SYMATTR Value 220p
SYMBOL res 352 400 R90
WINDOW 0 0 56 VBottom 0
WINDOW 3 32 56 VTop 0
SYMATTR InstName R5
SYMATTR Value 18.2K
SYMBOL cap 352 432 R0
SYMATTR InstName C3
SYMATTR Value 47p
SYMBOL cap 368 -16 R0
SYMATTR InstName C6
SYMATTR Value 10µ
SYMATTR SpiceLine Rser=5m
SYMBOL res 672 -32 R0
SYMATTR InstName R4
SYMATTR Value 2.2
SYMBOL cap 784 64 M90
WINDOW 0 0 32 VBottom 0
WINDOW 3 32 32 VTop 0
SYMATTR InstName C7
SYMATTR Value 1µ
TEXT 1256 552 Left 0 !.tran 1m startup
TEXT 768 -40 Bottom 0 ;LTC3879 - Fast, Wide Operating Range No RSENSE Step-Down Controller\nInput: 4.5V-14V     Output: 1.2V @ 15A, Fsw = 430kHz typical
TEXT 176 632 Left 0 ;Note:\n  If the simulation model is not found please update with the "Sync Release" command from the "Tools" menu.\n  It remains the customer's responsibility to verify proper and reliable operation in the actual application.\n  Component substitution and printed circuit board layout may significantly affect circuit performance or reliability.\n  Contact your local sales representative for assistance. This circuit is distributed to customers only for use with LTC parts.\n  Copyright © 2011 Linear Technology Inc. All rights reserved.
TEXT 1512 408 Left 0 ;1.2V @ 15A
