Version 4
SHEET 1 1832 1108
WIRE -544 -96 -544 -128
WIRE -544 16 -544 -16
WIRE -432 -128 -544 -128
WIRE -432 -80 -432 -128
WIRE -432 16 -432 -16
WIRE -336 -128 -432 -128
WIRE -336 -16 -336 -128
WIRE -336 144 -336 64
WIRE -336 336 -336 144
WIRE -320 336 -336 336
WIRE -304 432 -304 400
WIRE -304 528 -304 496
WIRE -288 144 -336 144
WIRE -288 160 -288 144
WIRE -288 240 -288 224
WIRE -256 400 -304 400
WIRE -224 272 -240 272
WIRE -208 -128 -336 -128
WIRE -208 -96 -208 -128
WIRE -208 16 -208 -32
WIRE -160 208 -192 208
WIRE -144 400 -176 400
WIRE -144 432 -144 400
WIRE -144 528 -144 496
WIRE -112 -128 -208 -128
WIRE -112 -96 -112 -128
WIRE -112 16 -208 16
WIRE -112 16 -112 -16
WIRE -112 80 -112 16
WIRE -80 80 -112 80
WIRE -80 144 -288 144
WIRE -80 208 -96 208
WIRE -80 272 -144 272
WIRE -80 336 -240 336
WIRE -80 400 -144 400
WIRE 48 -128 -112 -128
WIRE 48 16 48 -128
WIRE 48 480 48 464
WIRE 176 -128 48 -128
WIRE 176 -112 176 -128
WIRE 176 -16 176 -48
WIRE 176 16 176 -16
WIRE 176 480 176 464
WIRE 320 -16 176 -16
WIRE 320 144 304 144
WIRE 400 208 304 208
WIRE 400 240 400 208
WIRE 416 -16 384 -16
WIRE 416 144 400 144
WIRE 416 144 416 -16
WIRE 432 80 304 80
WIRE 432 240 400 240
WIRE 480 -128 176 -128
WIRE 480 0 480 -128
WIRE 480 144 416 144
WIRE 480 144 480 96
WIRE 480 160 480 144
WIRE 480 272 480 256
WIRE 544 -128 480 -128
WIRE 544 -112 544 -128
WIRE 544 -32 544 -48
WIRE 608 144 480 144
WIRE 608 176 608 144
WIRE 608 272 608 240
WIRE 656 144 608 144
WIRE 768 144 736 144
WIRE 768 192 768 144
WIRE 768 336 304 336
WIRE 768 336 768 256
WIRE 848 144 768 144
WIRE 848 192 848 144
WIRE 848 336 768 336
WIRE 848 336 848 272
WIRE 848 352 848 336
WIRE 848 448 848 432
WIRE 960 144 848 144
WIRE 960 176 960 144
WIRE 960 272 960 240
WIRE 1056 144 960 144
WIRE 1056 176 1056 144
WIRE 1056 272 1056 240
WIRE 1152 144 1056 144
WIRE 1152 160 1152 144
WIRE 1152 272 1152 240
FLAG -432 16 0
FLAG 480 272 0
FLAG 960 272 0
FLAG 848 448 0
FLAG 1152 144 OUT
FLAG -544 -128 IN
FLAG 544 -32 0
FLAG 48 480 0
FLAG 176 480 0
FLAG -192 208 0
FLAG -240 272 0
FLAG -144 528 0
FLAG -304 528 0
FLAG 1056 272 0
FLAG 1152 272 0
FLAG -544 16 0
FLAG -288 240 0
FLAG 608 272 0
SYMBOL ind 640 160 R270
WINDOW 0 32 56 VTop 0
WINDOW 3 5 56 VBottom 0
SYMATTR InstName L1
SYMATTR Value .6µ
SYMATTR SpiceLine Rser=1.59m
SYMBOL res 832 176 R0
SYMATTR Value 6.04K
SYMATTR InstName R1
SYMBOL res 832 336 R0
SYMATTR Value 4.02K
SYMATTR InstName R2
SYMBOL polcap -448 -80 R0
SYMATTR InstName C1
SYMATTR Value 220µ
SYMATTR SpiceLine Rser=0.023
SYMBOL res -352 -32 R0
SYMATTR InstName R3
SYMATTR Value 10
SYMBOL cap -304 160 R0
SYMATTR InstName C2
SYMATTR Value 2.2µ
SYMATTR SpiceLine Rser=7m
SYMBOL cap 384 -32 R90
WINDOW 0 0 32 VBottom 0
WINDOW 3 32 32 VTop 0
SYMATTR InstName C3
SYMATTR Value .2µ
SYMATTR SpiceLine Rser=9m
SYMBOL schottky 160 -112 R0
SYMATTR Value MBR0520L
SYMATTR InstName D1
SYMBOL polcap 944 176 R0
WINDOW 40 24 85 Left 0
SYMATTR SpiceLine2 x2
SYMATTR InstName C4
SYMATTR Value 180µ
SYMATTR SpiceLine Rser=0.012
SYMBOL cap -320 496 M180
WINDOW 0 24 64 Left 0
WINDOW 3 24 8 Left 0
SYMATTR InstName C5
SYMATTR Value 3300p
SYMBOL res -160 384 R90
WINDOW 0 0 56 VBottom 0
WINDOW 3 32 56 VTop 0
SYMATTR InstName R4
SYMATTR Value 18.2K
SYMBOL res -128 -112 R0
WINDOW 3 25 87 Left 0
SYMATTR Value 14K
SYMATTR InstName R5
SYMBOL cap -96 192 R90
WINDOW 3 32 32 VTop 0
WINDOW 0 0 32 VBottom 0
SYMATTR Value .01µ
SYMATTR InstName C6
SYMBOL voltage -544 -112 R0
SYMATTR InstName V1
SYMATTR Value 3.3
SYMBOL cap 752 192 R0
SYMATTR InstName C7
SYMATTR Value 470p
SYMBOL cap -160 496 M180
WINDOW 0 24 64 Left 0
WINDOW 3 24 8 Left 0
SYMATTR InstName C8
SYMATTR Value 100p
SYMBOL nmos 432 160 R0
WINDOW 3 52 86 Left 0
SYMATTR Value Si4864DY
SYMATTR InstName Q1
SYMBOL nmos 432 0 R0
WINDOW 3 61 58 Left 0
WINDOW 0 65 25 Left 0
SYMATTR Value Si4866DY
SYMATTR InstName Q2
SYMBOL schottky 592 240 M180
WINDOW 0 24 72 Left 0
WINDOW 3 24 0 Left 0
SYMATTR InstName D2
SYMATTR Value MBRS340
SYMATTR Description Diode
SYMATTR Type diode
SYMBOL PowerProducts\\LTC3832 112 240 R0
SYMATTR InstName U1
SYMBOL cap -224 -96 R0
SYMATTR InstName C9
SYMATTR Value .022µ
SYMBOL res 416 128 R90
WINDOW 0 0 56 VBottom 0
WINDOW 3 32 56 VTop 0
SYMATTR InstName R6
SYMATTR Value 1K
SYMBOL cap 528 -112 R0
SYMATTR InstName C10
SYMATTR Value 10µ
SYMBOL res -224 320 R90
WINDOW 0 0 56 VBottom 0
WINDOW 3 32 56 VTop 0
SYMATTR InstName R7
SYMATTR Value 1K
SYMBOL res -240 288 R270
WINDOW 0 32 56 VTop 0
WINDOW 3 0 56 VBottom 0
SYMATTR InstName R8
SYMATTR Value 130K
SYMBOL res 1136 144 R0
SYMATTR InstName Rload
SYMATTR Value .1
SYMBOL cap 1040 176 R0
SYMATTR InstName C11
SYMATTR Value 10µ
SYMATTR SpiceLine Rser=0.003
TEXT 968 80 Top 0 ;Panasonic SP-CAP\nEEFUE0G181R
TEXT 696 64 Center 0 ;TOKO \nFDH-1055-R60M
TEXT -72 504 Left 0 ;Note:\n  If the simulation model is not found please update with the "Sync Release" command from the "Tools" menu.\n  It remains the customer's responsibility to verify proper and reliable operation in the actual application.\n  Component substitution and printed circuit board layout may significantly affect circuit performance or reliability\n  Contact your local sales representative for assistance. This circuit is distributed to customers only for use with LTC parts\n  Copyright © 2006 Linear Technology Inc. All rights reserved.
TEXT 160 -184 Center 0 ;LTC3832 - 15A 400kHz Synchronous Buck Converter\nInput: 3.3V      Output: 1.5V@15A
TEXT 966 368 Left 0 !.tran 2m startup
