Version 4
SHEET 1 2820 2180
WIRE 1184 1520 1184 1488
WIRE 1184 1600 1184 1584
WIRE 1200 1216 1200 1184
WIRE 1200 1312 1200 1296
WIRE 1232 1488 1184 1488
WIRE 1312 1184 1200 1184
WIRE 1312 1200 1312 1184
WIRE 1312 1312 1312 1264
WIRE 1344 1488 1312 1488
WIRE 1344 1520 1344 1488
WIRE 1344 1600 1344 1584
WIRE 1440 1184 1312 1184
WIRE 1440 1264 1440 1184
WIRE 1440 1376 1440 1344
WIRE 1440 1392 1440 1376
WIRE 1440 1600 1424 1600
WIRE 1536 1376 1440 1376
WIRE 1536 1488 1344 1488
WIRE 1536 1600 1520 1600
WIRE 1600 1184 1440 1184
WIRE 1600 1200 1600 1184
WIRE 1600 1296 1600 1280
WIRE 1632 1696 1632 1680
WIRE 1696 1184 1600 1184
WIRE 1696 1296 1696 1184
WIRE 1760 1696 1760 1680
WIRE 1808 1184 1696 1184
WIRE 1808 1296 1808 1184
WIRE 1872 1184 1808 1184
WIRE 1872 1600 1856 1600
WIRE 1872 1600 1872 1184
WIRE 1888 1376 1856 1376
WIRE 2000 1376 1968 1376
WIRE 2000 1392 2000 1376
WIRE 2000 1488 1856 1488
WIRE 2000 1488 2000 1472
WIRE 2000 1504 2000 1488
WIRE 2000 1600 2000 1584
WIRE 2112 1376 2000 1376
WIRE 2112 1472 2112 1376
WIRE 2112 1600 2112 1536
WIRE 2240 1376 2112 1376
WIRE 2240 1456 2240 1376
WIRE 2240 1600 2240 1536
FLAG 1760 1696 0
FLAG 1632 1696 0
FLAG 1200 1312 0
FLAG 1424 1600 0
FLAG 2240 1600 0
FLAG 2000 1600 0
FLAG 2112 1600 0
FLAG 1184 1600 0
FLAG 2240 1376 OUT
FLAG 1312 1312 0
FLAG 1440 1456 0
FLAG 1344 1600 0
FLAG 1200 1184 IN
SYMBOL ind 1872 1392 R270
WINDOW 0 32 56 VTop 0
WINDOW 3 5 56 VBottom 0
SYMATTR InstName L1
SYMATTR Value 1µ
SYMBOL RES 1984 1376 R0
SYMATTR InstName R1
SYMATTR Value 232K
SYMBOL VOLTAGE 1200 1200 R0
WINDOW 3 27 94 Left 0
SYMATTR Value 3.3
SYMATTR InstName V1
SYMBOL res 1984 1488 R0
SYMATTR InstName R2
SYMATTR Value 187K
SYMBOL res 1536 1584 R90
WINDOW 0 0 56 VBottom 0
WINDOW 3 32 56 VTop 0
SYMATTR InstName R3
SYMATTR Value 309K
SYMBOL res 1328 1472 R90
WINDOW 0 0 56 VBottom 0
WINDOW 3 32 56 VTop 0
SYMATTR InstName R4
SYMATTR Value 7.5K
SYMBOL cap 2096 1472 R0
SYMATTR InstName C1
SYMATTR Value 100µ
SYMBOL cap 1168 1520 R0
SYMATTR InstName C2
SYMATTR Value 1000p
SYMBOL res 1424 1248 R0
SYMATTR InstName R5
SYMATTR Value 1Meg
SYMBOL res 1584 1184 R0
SYMATTR InstName R6
SYMATTR Value 100K
SYMBOL PowerProducts\\LTC3412A 1696 1488 R0
SYMATTR InstName U1
SYMBOL cap 1296 1200 R0
WINDOW 40 24 92 Left 0
SYMATTR SpiceLine2 x2
SYMATTR InstName C3
SYMATTR Value 22µ
SYMBOL cap 1424 1392 R0
WINDOW 3 27 55 Left 0
SYMATTR Value 1000p
SYMATTR InstName C4
SYMBOL cap 1328 1520 R0
SYMATTR InstName C5
SYMATTR Value 100p
SYMBOL load2 2240 1456 R0
WINDOW 3 25 79 Left 0
WINDOW 123 0 0 Left 0
WINDOW 39 25 112 Left 0
SYMATTR Value 3
SYMATTR SpiceLine load
SYMATTR InstName I1
TEXT 1904 1672 Left 0 !.tran 1.5m startup
TEXT 1792 1120 Center 0 ;LTC3412A - 3A, 4MHz, Monolithic Synchronous Step-down Regulator\nInput: 3.3V     Output: 1.8V @ 3A
TEXT 1192 1720 Left 0 ;Note:\n  If the simulation model is not found please update with the "Sync Release" command from the "Tools" menu.\n  It remains the customer's responsibility to verify proper and reliable operation in the actual application.\n  Component substitution and printed circuit board layout may significantly affect circuit performance or reliability\n  Contact your local sales representative for assistance. This circuit is distributed to customers only for use with LTC parts\n  Copyright © 2006 Linear Technology Inc. All rights reserved.
