Version 4
SHEET 1 1896 820
WIRE 784 32 -144 32
WIRE 1232 64 368 64
WIRE -144 112 -144 32
WIRE -144 112 -240 112
WIRE -96 112 -144 112
WIRE 32 112 -16 112
WIRE 368 112 368 64
WIRE 368 112 320 112
WIRE 384 112 368 112
WIRE 464 112 448 112
WIRE 896 112 880 112
WIRE 1232 112 1232 64
WIRE 1232 112 1184 112
WIRE 1248 112 1232 112
WIRE 1328 112 1312 112
WIRE -240 128 -240 112
WIRE -144 208 -144 112
WIRE -64 208 -144 208
WIRE 32 208 -64 208
WIRE 368 208 320 208
WIRE 480 208 368 208
WIRE 592 208 480 208
WIRE 672 208 592 208
WIRE 784 208 784 32
WIRE 896 208 784 208
WIRE 1232 208 1184 208
WIRE 1344 208 1232 208
WIRE 1456 208 1344 208
WIRE 1536 208 1456 208
WIRE 592 224 592 208
WIRE 672 224 672 208
WIRE 1456 224 1456 208
WIRE 1536 224 1536 208
WIRE -240 240 -240 208
WIRE -64 304 -64 208
WIRE 32 304 -64 304
WIRE 480 304 480 288
WIRE 480 304 320 304
WIRE 784 304 784 208
WIRE 896 304 784 304
WIRE 1344 304 1344 288
WIRE 1344 304 1184 304
WIRE -64 320 -64 304
WIRE 368 320 368 208
WIRE 480 320 480 304
WIRE 592 320 592 288
WIRE 672 320 672 304
WIRE 1232 320 1232 208
WIRE 1344 320 1344 304
WIRE 1456 320 1456 288
WIRE 1536 320 1536 304
WIRE 784 336 784 304
WIRE -64 400 -64 384
WIRE 32 400 16 400
WIRE 368 400 320 400
WIRE 896 400 880 400
WIRE 1232 400 1184 400
WIRE 480 416 480 400
WIRE 1344 416 1344 400
WIRE 784 432 784 400
FLAG -240 240 0
FLAG 16 400 0
FLAG 480 416 0
FLAG 592 320 0
FLAG 464 112 0
FLAG 672 320 0
FLAG -240 112 IN
FLAG 672 208 OUT1
FLAG -64 400 0
FLAG 880 400 0
FLAG 1344 416 0
FLAG 1456 320 0
FLAG 1328 112 0
FLAG 1536 320 0
FLAG 784 432 0
FLAG 1536 208 OUT2
SYMBOL voltage -240 112 R0
WINDOW 123 0 0 Left 2
WINDOW 39 0 0 Left 2
SYMATTR InstName V1
SYMATTR Value 2.5
SYMBOL cap 384 128 R270
WINDOW 3 0 32 VBottom 2
WINDOW 0 32 32 VTop 2
SYMATTR Value 4.7µ
SYMATTR InstName C1
SYMBOL res 352 304 R0
SYMATTR InstName R1
SYMATTR Value 100K
SYMBOL PowerProducts\\LTC3026 176 256 R0
SYMATTR InstName U1
SYMBOL res 464 192 R0
SYMATTR InstName R2
SYMATTR Value 14K
SYMBOL res 464 304 R0
SYMATTR InstName R3
SYMATTR Value 4.02K
SYMBOL cap 576 224 R0
SYMATTR InstName C2
SYMATTR Value 10µ
SYMBOL ind -112 128 R270
WINDOW 0 32 56 VTop 2
WINDOW 3 5 56 VBottom 2
SYMATTR InstName L1
SYMATTR Value 10µ
SYMBOL res 656 208 R0
SYMATTR InstName Rload1
SYMATTR Value 1.2
SYMBOL cap -80 320 R0
SYMATTR InstName C4
SYMATTR Value 4.7µ
SYMBOL cap 1248 128 R270
WINDOW 3 0 32 VBottom 2
WINDOW 0 32 32 VTop 2
SYMATTR Value 1µ
SYMATTR InstName C5
SYMBOL res 1216 304 R0
SYMATTR InstName R4
SYMATTR Value 100K
SYMBOL PowerProducts\\LTC3026 1040 256 R0
SYMATTR InstName U2
SYMBOL res 1328 192 R0
SYMATTR InstName R5
SYMATTR Value 11K
SYMBOL res 1328 304 R0
SYMATTR InstName R6
SYMATTR Value 4.02K
SYMBOL cap 1440 224 R0
SYMATTR InstName C6
SYMATTR Value 10µ
SYMBOL cap 768 336 R0
SYMATTR InstName C7
SYMATTR Value 1µ
SYMBOL res 1520 208 R0
SYMATTR InstName Rload2
SYMATTR Value 1
TEXT 1440 440 Left 2 !.tran 1m startup
TEXT 576 8 Bottom 2 ;LTC3026 - 1.5A Low Input Voltage VLDO Linear Regulator\nUsing a Single Boost Converter to Drive Multiple Linear Regulators\nInput: 1.9V to 3.5V    Output: 1.8V @ 1.5A & 1.5V @ 1.5A
TEXT 32 464 Left 2 ;Note:\n  If the simulation model is not found please update with the "Sync Release" command from the "Tools" menu.\n  It remains the customer's responsibility to verify proper and reliable operation in the actual application.\n  Component substitution and printed circuit board layout may significantly affect circuit performance or reliability\n  Contact your local sales representative for assistance. This circuit is distributed to customers only for use with LTC parts\n  Copyright © 2011, 2014 Linear Technology Inc. All rights reserved.
TEXT 840 112 Left 2 ;NC
