Version 4
SHEET 1 2160 824
WIRE 240 -96 48 -96
WIRE 432 -96 240 -96
WIRE 432 -80 432 -96
WIRE -64 -64 -336 -64
WIRE 64 -64 -64 -64
WIRE 160 -64 64 -64
WIRE 320 -64 160 -64
WIRE -336 -48 -336 -64
WIRE -64 -48 -64 -64
WIRE 160 -48 160 -64
WIRE 240 -48 240 -96
WIRE 320 -48 320 -64
WIRE 64 16 64 -64
WIRE 80 16 64 16
WIRE 432 16 432 0
WIRE 432 16 400 16
WIRE -336 48 -336 32
WIRE -64 48 -64 16
WIRE -160 112 -192 112
WIRE 80 112 -80 112
WIRE 592 112 400 112
WIRE -144 208 -160 208
WIRE -64 208 -80 208
WIRE 80 208 16 208
WIRE 432 208 400 208
WIRE 432 224 432 208
WIRE 80 304 64 304
WIRE 432 304 432 288
WIRE 432 304 400 304
WIRE 480 304 432 304
WIRE 592 304 592 112
WIRE 592 304 560 304
WIRE 688 304 592 304
WIRE 816 304 688 304
WIRE 912 304 816 304
WIRE 592 320 592 304
WIRE 688 320 688 304
WIRE 912 320 912 304
WIRE 816 336 816 304
WIRE -32 400 -144 400
WIRE 80 400 -32 400
WIRE 592 400 592 384
WIRE 592 400 400 400
WIRE 688 400 592 400
WIRE -144 416 -144 400
WIRE -32 416 -32 400
WIRE 688 416 688 400
WIRE 816 416 816 400
WIRE 912 416 912 400
WIRE 48 496 48 -96
WIRE 80 496 48 496
WIRE 432 496 400 496
WIRE 464 496 432 496
WIRE 544 496 528 496
WIRE -144 512 -144 496
WIRE -32 512 -32 480
WIRE 688 512 688 496
WIRE 192 576 192 560
WIRE 288 576 288 560
WIRE 48 608 48 496
WIRE 432 608 432 496
WIRE 432 608 48 608
FLAG -336 48 0
FLAG 192 576 0
FLAG 288 576 0
FLAG 688 512 0
FLAG 816 416 0
FLAG 912 416 0
FLAG -336 -64 IN
FLAG 912 304 OUT
FLAG 544 496 0
FLAG -64 48 0
FLAG -160 208 0
FLAG -144 512 0
FLAG -32 512 0
FLAG -192 112 0
SYMBOL voltage -336 -64 R0
WINDOW 123 0 0 Left 2
WINDOW 39 0 0 Left 2
SYMATTR Value2 ""
SYMATTR SpiceLine ""
SYMATTR InstName V1
SYMATTR Value PWL(0 0 .1m 5)
SYMBOL cap 416 224 R0
WINDOW 3 26 50 Left 2
WINDOW 0 24 12 Left 2
SYMATTR Value .1µ
SYMATTR InstName C1
SYMBOL ind 464 320 R270
WINDOW 0 32 56 VTop 2
WINDOW 3 5 56 VBottom 2
SYMATTR InstName L1
SYMATTR Value 2.2µ
SYMATTR SpiceLine Rser=5m
SYMBOL res 672 304 R0
SYMATTR InstName R1
SYMATTR Value 127K
SYMBOL res 672 400 R0
SYMATTR InstName R2
SYMATTR Value 40.2K
SYMATTR SpiceLine ""
SYMBOL cap 800 336 R0
WINDOW 123 24 84 Left 2
SYMATTR Value2 ""
SYMATTR InstName C2
SYMATTR Value 47µ
SYMATTR SpiceLine Rser=0.002
SYMBOL PowerProducts\\LTC3626 240 256 R0
SYMATTR InstName U1
SYMBOL cap 528 480 R90
WINDOW 0 0 32 VBottom 2
WINDOW 3 32 32 VTop 2
SYMATTR InstName C3
SYMATTR Value 2.2µ
SYMBOL cap 576 320 R0
SYMATTR InstName C4
SYMATTR Value 22p
SYMBOL cap -80 -48 R0
SYMATTR InstName C5
SYMATTR Value 47µ
SYMATTR SpiceLine ""
SYMBOL cap -80 192 R90
WINDOW 0 2 32 VBottom 2
WINDOW 3 32 32 VTop 2
SYMATTR InstName C6
SYMATTR Value 220p
SYMATTR SpiceLine ""
SYMBOL res 32 192 R90
WINDOW 0 3 56 VBottom 2
WINDOW 3 32 56 VTop 2
SYMATTR InstName R3
SYMATTR Value 13K
SYMATTR SpiceLine ""
SYMBOL cap -48 416 R0
SYMATTR InstName C7
SYMATTR Value .02µ
SYMATTR SpiceLine ""
SYMBOL res -160 400 R0
SYMATTR InstName R4
SYMATTR Value 40.2K
SYMATTR SpiceLine ""
SYMBOL res 416 -96 R0
SYMATTR InstName R5
SYMATTR Value 100K
SYMATTR SpiceLine ""
SYMBOL voltage -64 112 R90
WINDOW 0 -32 56 VBottom 2
WINDOW 3 29 56 VTop 2
WINDOW 123 0 0 Left 2
WINDOW 39 0 0 Left 2
SYMATTR InstName V2
SYMATTR Value PULSE(0 5 0 0 0 .5u 1u)
SYMATTR Value2 ""
SYMATTR SpiceLine ""
SYMBOL res 896 304 R0
SYMATTR InstName Rload
SYMATTR Value 1
TEXT 472 584 Left 2 !.tran 1.3m
TEXT 360 -104 Bottom 2 ;LTC3626 - 20V, 2.5A Synchronous Monolithic Step-Down Regulator with Current & Temp Monitoring\n2.5V, 1MHz Step-Down with Average Input Current Limit & Monitor\nInput: 3.6V to 20V (475mA Average Limit)       Output: 2.5V @ 2.5A
TEXT -464 608 Left 2 ;Note:\n  IMONin capacitor (C7) should be 1µF to provide adequate loop statility; it was decreased to speed up simulation of the input current limit.\n  If the simulation model is not found please update with the "Sync Release" command from the "Tools" menu.\n  It remains the customer's responsibility to verify proper and reliable operation in the actual application.\n  Component substitution and printed circuit board layout may significantly affect circuit performance or reliability.\n  Contact your local sales representative for assistance. This circuit is distributed to customers only for use with LTC parts.\n  Copyright © 2012 Linear Technology Inc. All rights reserved.
