Version 4
SHEET 1 1728 1124
WIRE 144 -128 -16 -128
WIRE 160 -128 144 -128
WIRE 272 -128 240 -128
WIRE 416 -128 272 -128
WIRE -16 -112 -16 -128
WIRE 416 -112 416 -128
WIRE 144 -80 144 -128
WIRE 272 -80 272 -128
WIRE -16 -16 -16 -48
WIRE 64 -16 -16 -16
WIRE 416 -16 416 -48
WIRE 416 -16 352 -16
WIRE -80 80 -192 80
WIRE 16 80 -80 80
WIRE 64 80 16 80
WIRE 656 80 352 80
WIRE 768 80 656 80
WIRE 880 80 768 80
WIRE 992 80 880 80
WIRE -192 96 -192 80
WIRE -80 96 -80 80
WIRE 656 96 656 80
WIRE 880 96 880 80
WIRE 992 96 992 80
WIRE 16 176 16 80
WIRE 64 176 16 176
WIRE 608 176 352 176
WIRE 656 176 656 160
WIRE 768 176 768 80
WIRE -192 192 -192 176
WIRE -80 192 -80 160
WIRE 880 192 880 160
WIRE 992 192 992 176
WIRE 16 272 16 176
WIRE 64 272 16 272
WIRE 416 272 352 272
WIRE 432 272 416 272
WIRE 528 272 512 272
WIRE 608 272 608 176
WIRE 608 272 592 272
WIRE 656 272 656 256
WIRE 656 272 608 272
WIRE 768 272 768 256
WIRE 768 272 656 272
WIRE 768 288 768 272
WIRE -16 368 -32 368
WIRE 64 368 48 368
WIRE 368 368 352 368
WIRE 416 368 416 272
WIRE 480 368 416 368
WIRE 608 368 608 272
WIRE 608 368 544 368
WIRE 768 384 768 368
WIRE 144 448 144 432
WIRE 272 448 272 432
FLAG 768 384 0
FLAG 272 448 0
FLAG -32 368 0
FLAG -80 192 0
FLAG 880 192 0
FLAG -192 80 IN
FLAG 992 80 OUT
FLAG -192 192 0
FLAG 992 192 0
FLAG 368 368 0
FLAG 144 448 0
SYMBOL LTC3111 208 176 R0
SYMATTR InstName U1
SYMBOL ind 144 -112 R270
WINDOW 0 32 56 VTop 2
WINDOW 3 5 56 VBottom 2
SYMATTR InstName L1
SYMATTR Value 10µ
SYMATTR SpiceLine Ipk=4.9 Rser=.0409
SYMBOL cap -32 -112 R0
SYMATTR InstName C1
SYMATTR Value .1µ
SYMBOL cap 400 -112 R0
SYMATTR InstName C2
SYMATTR Value .1µ
SYMBOL cap 864 96 R0
SYMATTR InstName C3
SYMATTR Value 100µ
SYMATTR SpiceLine V=16V Rser=.01
SYMBOL cap 640 96 R0
WINDOW 0 26 12 Left 2
WINDOW 3 24 55 Left 2
SYMATTR InstName C5
SYMATTR Value 47p
SYMBOL res 640 160 R0
WINDOW 3 36 70 Left 2
SYMATTR Value 11.5K
SYMATTR InstName R2
SYMBOL res 752 160 R0
WINDOW 0 34 43 Left 2
SYMATTR InstName R3
SYMATTR Value 845K
SYMBOL res 752 272 R0
WINDOW 3 38 69 Left 2
SYMATTR Value 158K
SYMATTR InstName R4
SYMBOL cap 544 352 R90
WINDOW 0 0 32 VBottom 2
WINDOW 3 32 32 VTop 2
SYMATTR InstName C6
SYMATTR Value 22p
SYMBOL cap 592 256 R90
WINDOW 0 0 32 VBottom 2
WINDOW 3 32 32 VTop 2
SYMATTR InstName C7
SYMATTR Value 1500p
SYMBOL res 528 256 R90
WINDOW 0 0 56 VBottom 2
WINDOW 3 32 56 VTop 2
SYMATTR InstName R5
SYMATTR Value 41.2K
SYMBOL cap 48 352 R90
WINDOW 0 0 32 VBottom 2
WINDOW 3 32 32 VTop 2
SYMATTR InstName C8
SYMATTR Value 1µ
SYMBOL cap -96 96 R0
SYMATTR InstName C9
SYMATTR Value 47µ
SYMATTR SpiceLine V=16 Rser=.01
SYMBOL voltage -192 80 R0
WINDOW 123 24 138 Left 2
WINDOW 39 24 117 Left 2
SYMATTR InstName V1
SYMATTR Value 12V
SYMBOL res 976 80 R0
SYMATTR InstName Rload
SYMATTR Value 10
TEXT 832 408 Left 2 !.tran 4m startup
TEXT 456 -184 Bottom 2 ;LTC3111- 15V, 1.5A Synchronous Buck-Boost DC/DC Converter\n5V, 800kHz Wide Input Voltage Buck-Boost Regulator\nInput: 2.5V to 15V     Output: 5V @ 1.5A for Vin > Vout
TEXT -232 464 Left 2 ;Notes: \n  If the simulation model is not found please update with the "Sync Release" command from the "Tools" menu.\n  It remains the customer's responsibility to verify proper and reliable operation in the actual application.\n  Component substitution and printed circuit board layout may significantly affect circuit performance or reliability.\n  Contact your local sales representative for assistance. This circuit is distributed to customers only for use with LTC parts.\n  Copyright © 2015 Linear Technology Inc.  All rights reserved.
