Version 4
SHEET 1 5868 2084
WIRE 1488 1376 1360 1376
WIRE 1584 1376 1488 1376
WIRE 1632 1376 1584 1376
WIRE 1936 1376 1920 1376
WIRE 2032 1376 2016 1376
WIRE 2096 1376 2032 1376
WIRE 2208 1376 2096 1376
WIRE 2304 1376 2208 1376
WIRE 2416 1376 2304 1376
WIRE 1360 1392 1360 1376
WIRE 1488 1392 1488 1376
WIRE 2416 1392 2416 1376
WIRE 2304 1408 2304 1376
WIRE 2096 1424 2096 1376
WIRE 2208 1424 2208 1376
WIRE 1584 1472 1584 1376
WIRE 1632 1472 1584 1472
WIRE 2032 1472 2032 1376
WIRE 2032 1472 1920 1472
WIRE 1360 1488 1360 1472
WIRE 1488 1488 1488 1456
WIRE 2304 1504 2304 1472
WIRE 2416 1504 2416 1472
WIRE 1584 1568 1584 1472
WIRE 1632 1568 1584 1568
WIRE 2096 1568 2096 1504
WIRE 2096 1568 1920 1568
WIRE 2208 1568 2208 1488
WIRE 2208 1568 2096 1568
WIRE 2096 1584 2096 1568
WIRE 1632 1664 1600 1664
WIRE 2032 1664 2032 1472
WIRE 2032 1664 1920 1664
WIRE 1600 1680 1600 1664
WIRE 2096 1680 2096 1664
FLAG 1360 1488 0
FLAG 1600 1680 0
FLAG 2416 1504 0
FLAG 2096 1680 0
FLAG 2304 1504 0
FLAG 2416 1376 OUT
FLAG 1488 1488 0
FLAG 1360 1376 IN
SYMBOL ind 1920 1392 R270
WINDOW 0 32 56 VTop 0
WINDOW 3 5 56 VBottom 0
SYMATTR InstName L1
SYMATTR Value 2.2µ
SYMATTR SpiceLine Ipk=2.3 Rser=0.06 Rpar=55000 Cpar=1.8p mfg="Coilcraft" pn="DO1608P-222"
SYMBOL RES 2080 1408 R0
SYMATTR InstName R2
SYMATTR Value 1Meg
SYMBOL VOLTAGE 1360 1376 R0
WINDOW 123 0 0 Left 0
WINDOW 39 24 132 Left 0
SYMATTR InstName V1
SYMATTR Value 3.3
SYMBOL res 2080 1568 R0
WINDOW 3 35 73 Left 0
SYMATTR Value 499K
SYMATTR InstName R1
SYMBOL cap 2192 1424 R0
SYMATTR InstName C2
SYMATTR Value 22p
SYMBOL cap 1472 1392 R0
SYMATTR SpiceLine V=6.3 Irms=0 Rser=0.0008 MTBF=0 Lser=0 mfg="TDK" pn="C3225X5R0J226M" type="X5R" ppPkg=1
SYMATTR SpiceLine2 x1
SYMATTR InstName C3
SYMATTR Value 10µ
SYMBOL cap 2288 1408 R0
SYMATTR SpiceLine V=6.3 Irms=0 Rser=0.0008 MTBF=0 Lser=0 mfg="TDK" pn="C3225X5R0J226M" type="X5R" ppPkg=1
SYMATTR SpiceLine2 x1
SYMATTR InstName C4
SYMATTR Value 10µ
SYMBOL res 2400 1376 R0
SYMATTR InstName Rload
SYMATTR Value 3
SYMBOL PowerProducts\\LTC3448 1776 1520 R0
SYMATTR InstName U1
TEXT 2272 1632 Left 0 !.tran 2m startup
TEXT 1848 1304 Bottom 0 ;LTC3448 - 1.5MHz/2.25MHz, 600mA Synchronous Step-Down Regulator with LDO Mode\nInput: 3.3V     Output: 1.8V @ 0.6A
TEXT 1312 1720 Left 0 ;Note:\n  If the simulation model is not found please update with the "Sync Release" command from the "Tools" menu.\n  It remains the customer's responsibility to verify proper and reliable operation in the actual application.\n  Component substitution and printed circuit board layout may significantly affect circuit performance or reliability\n  Contact your local sales representative for assistance. This circuit is distributed to customers only for use with LTC parts\n  Copyright © 2006 Linear Technology Inc. All rights reserved.
