Version 4
SHEET 1 1432 680
WIRE 144 0 -32 0
WIRE 336 0 144 0
WIRE 448 0 384 0
WIRE 544 0 512 0
WIRE 656 0 544 0
WIRE 752 0 656 0
WIRE -32 16 -32 0
WIRE 144 16 144 0
WIRE 336 16 336 0
WIRE 384 16 384 0
WIRE 544 16 544 0
WIRE 656 16 656 0
WIRE 752 16 752 0
WIRE -32 112 -32 96
WIRE 64 112 48 112
WIRE 144 112 144 96
WIRE 144 112 128 112
WIRE 384 112 384 96
WIRE 544 112 544 96
WIRE 544 112 512 112
WIRE 656 112 656 80
WIRE 752 112 752 96
WIRE 336 128 336 96
WIRE 544 128 544 112
WIRE 144 160 144 112
WIRE 288 208 272 208
WIRE 544 224 544 208
WIRE -64 272 -80 272
WIRE 16 272 0 272
WIRE 336 272 336 224
WIRE 336 272 272 272
WIRE 352 272 336 272
WIRE 448 272 432 272
WIRE 512 336 512 112
WIRE 512 336 272 336
WIRE 144 400 144 384
FLAG 448 272 0
FLAG -32 112 0
FLAG 48 112 0
FLAG 144 400 0
FLAG 384 112 0
FLAG 544 224 0
FLAG 656 112 0
FLAG 752 112 0
FLAG -80 272 0
FLAG -32 0 IN
FLAG 752 0 OUT
SYMBOL voltage -32 0 R0
WINDOW 123 0 0 Left 2
WINDOW 39 0 0 Left 2
SYMATTR InstName V1
SYMATTR Value 50
SYMBOL ind2 320 0 R0
WINDOW 0 -1 36 Right 2
WINDOW 3 -5 69 Right 2
SYMATTR InstName L1
SYMATTR Value 50µ
SYMATTR Type ind
SYMBOL ind2 400 112 R180
WINDOW 0 -6 76 Right 2
WINDOW 3 -6 40 Right 2
SYMATTR InstName L2
SYMATTR Value 2µ
SYMATTR Type ind
SYMBOL nmos 288 128 R0
SYMATTR InstName Q1
SYMATTR Value BSS123
SYMBOL res 336 288 R270
WINDOW 0 32 56 VTop 2
WINDOW 3 0 56 VBottom 2
SYMATTR InstName R1
SYMATTR Value 68m
SYMBOL res 128 0 R0
SYMATTR InstName R2
SYMATTR Value 10K
SYMBOL cap 128 96 R90
WINDOW 0 0 32 VBottom 2
WINDOW 3 32 32 VTop 2
SYMATTR InstName C1
SYMATTR Value 10µ
SYMBOL res 528 0 R0
SYMATTR InstName R3
SYMATTR Value 105K
SYMBOL res 528 112 R0
SYMATTR InstName R4
SYMATTR Value 20K
SYMBOL schottky 448 16 R270
WINDOW 0 32 32 VTop 2
WINDOW 3 0 32 VBottom 2
SYMATTR InstName D1
SYMATTR Value 1N5817
SYMATTR Description Diode
SYMATTR Type diode
SYMBOL cap 640 16 R0
SYMATTR InstName C2
SYMATTR Value 300µ
SYMATTR SpiceLine Rser=50m
SYMBOL res 736 0 R0
SYMATTR InstName Rload
SYMATTR Value 2.5
SYMBOL cap 0 256 R90
WINDOW 0 0 32 VBottom 2
WINDOW 3 32 32 VTop 2
SYMATTR InstName C3
SYMATTR Value .001µ
SYMBOL LTC3803-3 144 272 R0
SYMATTR InstName U1
TEXT 360 -8 Bottom 2 !K1 L1 L2 1.
TEXT 312 368 Left 2 !.tran 30m startup
TEXT 360 -48 Bottom 2 ;LTC3803-3 - Constant Frequency Current Mode Flyback DC/DC Controller\n5V Output Nonisolated Telecom Housekeeping Power Supply\nInput: 36V to 72V     Output: 5V @ 2A
TEXT -248 408 Left 2 ;Note:\n  If the simulation model is not found please update with the "Sync Release" command from the "Tools" menu.\n  It remains the customer's responsibility to verify proper and reliable operation in the actual application.\n  Component substitution and printed circuit board layout may significantly affect circuit performance or reliability.\n  Contact your local sales representative for assistance. This circuit is distributed to customers only for use with LTC parts.\n  Copyright © 2012 Linear Technology Inc. All rights reserved.
