Version 4
SHEET 1 1312 724
WIRE -32 32 -128 32
WIRE 80 32 -32 32
WIRE 96 32 80 32
WIRE 416 32 384 32
WIRE 528 32 496 32
WIRE 576 32 528 32
WIRE 688 32 576 32
WIRE -128 48 -128 32
WIRE -32 48 -32 32
WIRE 576 48 576 32
WIRE 688 48 688 32
WIRE 80 128 80 32
WIRE 96 128 80 128
WIRE 528 128 528 32
WIRE 528 128 384 128
WIRE -128 144 -128 128
WIRE -32 144 -32 112
WIRE 576 144 576 112
WIRE 688 144 688 128
WIRE 432 224 384 224
WIRE 400 320 384 320
WIRE 96 416 80 416
WIRE 432 416 432 224
WIRE 432 416 384 416
WIRE 240 496 240 480
FLAG -128 144 0
FLAG 576 144 0
FLAG 688 144 0
FLAG -128 32 IN
FLAG 688 32 OUT
FLAG -32 144 0
FLAG 240 496 0
FLAG 400 320 0
FLAG 80 416 0
SYMBOL voltage -128 32 R0
SYMATTR InstName V1
SYMATTR Value 120
SYMBOL ind 400 48 R270
WINDOW 0 32 56 VTop 2
WINDOW 3 5 56 VBottom 2
SYMATTR InstName L1
SYMATTR Value 1000µ
SYMATTR SpiceLine Rser=50m
SYMBOL cap 560 48 R0
WINDOW 3 38 37 Left 2
WINDOW 123 23 64 Left 2
SYMATTR Value 100µ
SYMATTR InstName C1
SYMATTR SpiceLine V=6.3 Irms=0 Rser=0.001 Lser=0
SYMBOL res 672 32 R0
SYMATTR InstName Rload
SYMATTR Value 33
SYMBOL LTC3639 240 224 R0
SYMATTR InstName U1
SYMBOL cap -48 48 R0
SYMATTR InstName C2
SYMATTR Value 1µ
TEXT 568 448 Left 2 !.tran 10m startup
TEXT 240 -56 Bottom 2 ;LTC3639 - High Efficiency, 150V, 100mA Synchronous Step-Down Regulator\nHigh Efficiency, 150V Synchronous Buck Converter\nInput: 4V to 150V     Output: 3.3V @ 100mA
TEXT -336 512 Left 2 ;Note:\n  If the simulation model is not found please update with the "Sync Release" command from the "Tools" menu.\n  It remains the customer's responsibility to verify proper and reliable operation in the actual application.\n  Component substitution and printed circuit board layout may significantly affect circuit performance or reliability\n  Contact your local sales representative for assistance. This circuit is distributed to customers only for use with LTC parts\n  Copyright © 2014 Linear Technology Inc. All rights reserved.
