Version 4
SHEET 1 976 1672
WIRE -1408 176 -1520 176
WIRE -1312 176 -1408 176
WIRE -880 176 -1312 176
WIRE -224 176 -880 176
WIRE -1520 192 -1520 176
WIRE -1408 192 -1408 176
WIRE -736 192 -1104 192
WIRE -448 192 -736 192
WIRE -1312 224 -1312 176
WIRE -880 224 -880 176
WIRE -736 224 -736 192
WIRE -224 224 -224 176
WIRE -1520 288 -1520 272
WIRE -1408 288 -1408 256
WIRE -960 304 -1264 304
WIRE -272 304 -512 304
WIRE -1104 320 -1104 192
WIRE -448 320 -448 192
WIRE -1104 400 -1104 384
WIRE -960 400 -1104 400
WIRE -448 400 -448 384
WIRE -448 400 -512 400
WIRE -1104 416 -1104 400
WIRE -448 416 -448 400
WIRE -1824 496 -1968 496
WIRE -1728 496 -1824 496
WIRE -1648 496 -1728 496
WIRE -1600 496 -1648 496
WIRE -1552 496 -1600 496
WIRE -1424 496 -1472 496
WIRE -1312 496 -1312 320
WIRE -1312 496 -1424 496
WIRE -1104 496 -1104 480
WIRE -1104 496 -1312 496
WIRE -960 496 -1104 496
WIRE -448 496 -448 480
WIRE -448 496 -512 496
WIRE -224 496 -224 320
WIRE -224 496 -448 496
WIRE -176 496 -224 496
WIRE -128 496 -176 496
WIRE -16 496 -48 496
WIRE 32 496 -16 496
WIRE 96 496 32 496
WIRE 144 496 96 496
WIRE 240 496 144 496
WIRE -1968 512 -1968 496
WIRE -1824 512 -1824 496
WIRE -1728 512 -1728 496
WIRE -1312 512 -1312 496
WIRE -224 512 -224 496
WIRE 32 512 32 496
WIRE 144 512 144 496
WIRE 240 512 240 496
WIRE -1424 560 -1424 496
WIRE -176 560 -176 496
WIRE -960 592 -1264 592
WIRE -272 592 -512 592
WIRE -1968 608 -1968 592
WIRE -1824 608 -1824 576
WIRE -1728 608 -1728 576
WIRE 32 608 32 576
WIRE 144 608 144 576
WIRE 240 608 240 592
WIRE -1312 624 -1312 608
WIRE -224 624 -224 608
WIRE -1424 688 -1424 640
WIRE -1040 688 -1424 688
WIRE -960 688 -1040 688
WIRE -464 688 -512 688
WIRE -176 688 -176 640
WIRE -176 688 -464 688
WIRE -1040 704 -1040 688
WIRE -464 704 -464 688
WIRE -1600 784 -1600 496
WIRE -1424 784 -1424 768
WIRE -1424 784 -1600 784
WIRE -1040 784 -1040 768
WIRE -1040 784 -1424 784
WIRE -960 784 -1040 784
WIRE -464 784 -464 768
WIRE -464 784 -512 784
WIRE -176 784 -176 768
WIRE -176 784 -464 784
WIRE -16 784 -16 496
WIRE -16 784 -176 784
WIRE -1648 880 -1648 496
WIRE -1600 880 -1648 880
WIRE -1488 880 -1520 880
WIRE -960 880 -1488 880
WIRE -64 880 -512 880
WIRE -16 880 -64 880
WIRE 96 880 96 496
WIRE 96 880 64 880
WIRE -1648 976 -1648 880
WIRE -1600 976 -1648 976
WIRE -1488 976 -1488 880
WIRE -1488 976 -1536 976
WIRE -1264 976 -1312 976
WIRE -1136 976 -1184 976
WIRE -960 976 -1136 976
WIRE -352 976 -512 976
WIRE -288 976 -352 976
WIRE -176 976 -208 976
WIRE -1488 992 -1488 976
WIRE -1312 992 -1312 976
WIRE -1136 992 -1136 976
WIRE -352 992 -352 976
WIRE -176 992 -176 976
WIRE -64 992 -64 880
WIRE -16 992 -64 992
WIRE 96 992 96 880
WIRE 96 992 48 992
WIRE -64 1024 -64 992
WIRE -1312 1072 -1312 1056
WIRE -1136 1072 -1136 1056
WIRE -1040 1072 -1056 1072
WIRE -960 1072 -976 1072
WIRE -496 1072 -512 1072
WIRE -416 1072 -432 1072
WIRE -352 1072 -352 1056
WIRE -176 1072 -176 1056
WIRE -1488 1088 -1488 1072
WIRE -64 1120 -64 1104
WIRE -496 1264 -512 1264
WIRE -400 1264 -416 1264
WIRE -880 1360 -880 1344
WIRE -736 1360 -736 1344
WIRE -592 1360 -592 1344
FLAG -1520 288 0
FLAG -1408 288 0
FLAG -1312 624 0
FLAG -1728 608 0
FLAG -1824 608 0
FLAG -1968 496 OUT1
FLAG -1488 1088 0
FLAG -1312 1072 0
FLAG -1056 1072 0
FLAG -880 1360 0
FLAG -736 1360 0
FLAG -592 1360 0
FLAG -400 1264 0
FLAG -416 1072 0
FLAG -224 624 0
FLAG 32 608 0
FLAG 144 608 0
FLAG 240 496 OUT2
FLAG -64 1120 0
FLAG -176 1072 0
FLAG -1968 608 0
FLAG 240 608 0
FLAG -352 1072 0
FLAG -1136 1072 0
FLAG -1520 176 IN
SYMBOL voltage -1520 176 R0
SYMATTR InstName V1
SYMATTR Value 12
SYMBOL cap -1424 192 R0
WINDOW 3 38 33 Left 2
WINDOW 123 24 60 Left 2
SYMATTR Value 10µ
SYMATTR Value2 x2
SYMATTR InstName C1
SYMATTR SpiceLine Rser=5m
SYMBOL nmos -1264 224 M0
WINDOW 0 -1 24 Right 2
WINDOW 3 0 58 Right 2
SYMATTR InstName Q1
SYMATTR Value RJK0305DPB
SYMBOL nmos -1264 512 M0
WINDOW 0 -38 25 Left 2
WINDOW 3 -151 63 Left 2
SYMATTR InstName Q2
SYMATTR Value RJK0301DPB
SYMBOL schottky -1120 320 R0
SYMATTR InstName D1
SYMATTR Value CMDSH2-3
SYMATTR Description Diode
SYMATTR Type diode
SYMBOL cap -1120 416 R0
SYMATTR InstName C2
SYMATTR Value .1µ
SYMBOL ind -1456 512 M270
WINDOW 0 32 56 VTop 2
WINDOW 3 5 56 VBottom 2
SYMATTR InstName L1
SYMATTR Value 2.4µ
SYMATTR SpiceLine Rser=9.8m
SYMBOL cap -1744 512 R0
SYMATTR InstName C3
SYMATTR Value 22µ
SYMATTR SpiceLine Rser=2m
SYMBOL polcap -1840 512 R0
WINDOW 40 24 82 Left 2
SYMATTR InstName C4
SYMATTR Value 220µ
SYMATTR SpiceLine Rser=9m
SYMBOL res -1440 544 R0
SYMATTR InstName R1
SYMATTR Value 3.92K
SYMBOL cap -1056 704 R0
SYMATTR InstName C5
SYMATTR Value 0.1µ
SYMBOL res -1616 864 M90
WINDOW 0 0 56 VBottom 2
WINDOW 3 32 56 VTop 2
SYMATTR InstName R2
SYMATTR Value 90.9K
SYMBOL res -1504 976 R0
SYMATTR InstName R3
SYMATTR Value 20K
SYMBOL cap -1600 992 R270
WINDOW 0 32 32 VTop 2
WINDOW 3 0 32 VBottom 2
SYMATTR InstName C6
SYMATTR Value 22p
SYMBOL cap -1328 992 R0
SYMATTR InstName C7
SYMATTR Value 2.2n
SYMBOL res -1168 960 R90
WINDOW 0 0 56 VBottom 2
WINDOW 3 32 56 VTop 2
SYMATTR InstName R4
SYMATTR Value 10K
SYMBOL cap -1152 992 R0
SYMATTR InstName C8
SYMATTR Value 220p
SYMBOL cap -976 1056 R90
WINDOW 0 0 32 VBottom 2
WINDOW 3 32 32 VTop 2
SYMATTR InstName C9
SYMATTR Value 1n
SYMBOL res -512 1280 R270
WINDOW 0 32 56 VTop 2
WINDOW 3 0 56 VBottom 2
SYMATTR InstName R5
SYMATTR Value 100K
SYMBOL cap -496 1088 R270
WINDOW 0 32 32 VTop 2
WINDOW 3 0 32 VBottom 2
SYMATTR InstName C10
SYMATTR Value 1n
SYMBOL LTC3869-2 -736 784 R0
SYMATTR InstName U1
SYMBOL nmos -272 224 R0
WINDOW 0 68 23 Left 2
WINDOW 3 68 63 Left 2
SYMATTR InstName Q3
SYMATTR Value RJK0305DPB
SYMBOL nmos -272 512 R0
WINDOW 0 -36 24 Left 2
WINDOW 3 -151 58 Left 2
SYMATTR InstName Q4
SYMATTR Value RJK0301DPB
SYMBOL schottky -464 320 R0
SYMATTR InstName D2
SYMATTR Value CMDSH2-3
SYMATTR Description Diode
SYMATTR Type diode
SYMBOL cap -464 416 R0
SYMATTR InstName C11
SYMATTR Value .1µ
SYMBOL ind -144 512 R270
WINDOW 0 32 56 VTop 2
WINDOW 3 5 56 VBottom 2
SYMATTR InstName L2
SYMATTR Value 2.4µ
SYMATTR SpiceLine Rser=9.8m
SYMBOL cap 16 512 R0
SYMATTR InstName C12
SYMATTR Value 22µ
SYMATTR SpiceLine Rser=2m
SYMBOL polcap 128 512 R0
WINDOW 40 24 82 Left 2
SYMATTR InstName C13
SYMATTR Value 220µ
SYMATTR SpiceLine Rser=9m
SYMBOL res 80 864 R90
WINDOW 0 0 56 VBottom 2
WINDOW 3 32 56 VTop 2
SYMATTR InstName R6
SYMATTR Value 63.4K
SYMBOL cap 48 976 R90
WINDOW 0 0 32 VBottom 2
WINDOW 3 32 32 VTop 2
SYMATTR InstName C14
SYMATTR Value 22p
SYMBOL res -80 1008 R0
SYMATTR InstName R7
SYMATTR Value 20K
SYMBOL cap -192 992 R0
SYMATTR InstName C15
SYMATTR Value 2.2n
SYMBOL res -304 992 R270
WINDOW 0 32 56 VTop 2
WINDOW 3 0 56 VBottom 2
SYMATTR InstName R8
SYMATTR Value 8.2K
SYMBOL cap -368 992 R0
SYMATTR InstName C16
SYMATTR Value 330p
SYMBOL res -1984 496 R0
SYMATTR InstName Rload1
SYMATTR Value 0.66
SYMBOL res 224 496 R0
SYMATTR InstName Rload2
SYMATTR Value 0.5
SYMBOL res -1440 672 R0
SYMATTR InstName R11
SYMATTR Value 4.99K
SYMBOL res -192 544 R0
SYMATTR InstName R12
SYMATTR Value 3.92K
SYMBOL res -192 672 R0
SYMATTR InstName R13
SYMATTR Value 4.99K
SYMBOL cap -480 704 R0
SYMATTR InstName C17
SYMATTR Value 0.1µ
TEXT -1968 464 Bottom 2 ;3.3V, MAX 5A
TEXT 240 464 Bottom 2 ;2.5V, MAX 5A
TEXT -736 168 Bottom 2 ;LTC3869-2 - Dual, 2-Phase Synchronous Step-Down DC/DC Controller\nHigh Efficiency Dual 3.3V/2.5V Buck Converter using DCR Current Sensing\nInput: 4.5V-26V     Outputs: 3.3V @ 5A and 2.5V @ 5A, Fsw = 400kHz
TEXT -1328 1376 Left 2 ;Notes:\n  A 100 Ohm & 1nF Rsense filter may be required to counter effects of Rsense ESL. Refer to the datasheet for details. \n  If the simulation model is not found please update with the "Sync Release" command from the "Tools" menu.\n  It remains the customer's responsibility to verify proper and reliable operation in the actual application.\n  Component substitution and printed circuit board layout may significantly affect circuit performance or reliability.\n  Contact your local sales representative for assistance. This circuit is distributed to customers only for use with LTC parts.\n  Copyright © 2014 Linear Technology Inc. All rights reserved.
TEXT -240 1288 Left 2 !.tran .7m startup
