Version 4
SHEET 1 1440 720
WIRE 208 -32 192 -32
WIRE 304 -32 288 -32
WIRE 192 16 192 -32
WIRE 304 16 304 -32
WIRE -176 80 -288 80
WIRE 112 80 -176 80
WIRE 128 80 112 80
WIRE 416 80 368 80
WIRE 576 80 416 80
WIRE 704 80 576 80
WIRE 816 80 704 80
WIRE -288 96 -288 80
WIRE 704 96 704 80
WIRE 816 96 816 80
WIRE -176 112 -176 80
WIRE 576 128 576 80
WIRE 416 144 416 80
WIRE 112 176 112 80
WIRE 128 176 112 176
WIRE -288 192 -288 176
WIRE 704 192 704 160
WIRE 816 192 816 176
WIRE -176 224 -176 176
WIRE 32 272 16 272
WIRE 128 272 112 272
WIRE 416 272 416 208
WIRE 416 272 368 272
WIRE 576 272 576 208
WIRE 576 272 416 272
WIRE -176 336 -176 288
WIRE 128 368 112 368
WIRE 432 368 368 368
WIRE 576 368 576 272
WIRE 576 368 496 368
WIRE 576 384 576 368
WIRE 192 448 192 432
WIRE 304 448 304 432
WIRE 576 480 576 464
FLAG 192 448 0
FLAG 304 448 0
FLAG -288 192 0
FLAG 112 368 0
FLAG 576 480 0
FLAG 704 192 0
FLAG 816 192 0
FLAG 816 80 OUT
FLAG 16 272 0
FLAG -176 80 IN
FLAG -176 336 0
SYMBOL PowerProducts\\LTC3536 256 224 R0
SYMATTR InstName U1
SYMBOL voltage -288 80 R0
WINDOW 123 0 0 Left 2
WINDOW 39 0 0 Left 2
SYMATTR Value2 ""
SYMATTR SpiceLine ""
SYMATTR InstName V1
SYMATTR Value 3.4
SYMBOL ind 192 -16 R270
WINDOW 0 32 56 VTop 2
WINDOW 3 5 56 VBottom 2
SYMATTR InstName L1
SYMATTR Value 4.7µ
SYMBOL res 560 112 R0
SYMATTR InstName R1
SYMATTR Value 845K
SYMBOL cap 400 144 R0
WINDOW 39 23 60 Left 2
WINDOW 3 39 32 Left 2
SYMATTR SpiceLine Rser=6.49K
SYMATTR Value 47p
SYMATTR InstName C1
SYMBOL res 560 368 R0
SYMATTR InstName R2
SYMATTR Value 187K
SYMBOL cap 496 352 R90
WINDOW 0 0 32 VBottom 2
WINDOW 3 32 32 VTop 2
WINDOW 39 53 32 VTop 2
WINDOW 40 74 32 VTop 2
SYMATTR InstName C2
SYMATTR Value 220p
SYMATTR SpiceLine Rser=49.9K
SYMATTR SpiceLine2 Cpar=10p
SYMBOL res 800 80 R0
SYMATTR InstName Rload
SYMATTR Value 3.3
SYMBOL res 128 256 R90
WINDOW 0 0 56 VBottom 2
WINDOW 3 32 56 VTop 2
SYMATTR InstName R3
SYMATTR Value 100K
SYMBOL cap 688 96 R0
SYMATTR InstName C3
SYMATTR Value 22µ
SYMBOL cap -192 112 R0
WINDOW 3 39 34 Left 2
WINDOW 39 25 60 Left 2
SYMATTR Value 6m
SYMATTR SpiceLine Rpar=221K
SYMATTR InstName C4
SYMBOL cap -192 224 R0
WINDOW 3 39 32 Left 2
WINDOW 39 23 60 Left 2
SYMATTR Value 6m
SYMATTR SpiceLine Rpar=221K
SYMATTR InstName C5
TEXT 664 392 Left 2 !.tran 1m startup
TEXT 256 -88 Bottom 2 ;LTC3536 - 1A Low Noise, Buck-Boost DC/DC Converter\nSupercapcitor Backup Power Supply\nInput: 1.8V to 5V     Output: 3.3V @ 300mA (1A for Vin > 3V)
TEXT -368 496 Left 2 ;Note:\n  If the simulation model is not found please update with the "Sync Release" command from the "Tools" menu.\n  It remains the customer's responsibility to verify proper and reliable operation in the actual application.\n  Component substitution and printed circuit board layout may significantly affect circuit performance or reliability.\n  Contact your local sales representative for assistance. This circuit is distributed to customers only for use with LTC parts.\n  Copyright © 2012 Linear Technology Inc. All rights reserved.
