Version 4
SHEET 1 1528 708
WIRE -16 -96 -112 -96
WIRE 64 -96 -16 -96
WIRE 176 -96 64 -96
WIRE 288 -96 256 -96
WIRE -112 -80 -112 -96
WIRE -16 -80 -16 -96
WIRE 64 -48 64 -96
WIRE 96 -48 64 -48
WIRE 192 -48 176 -48
WIRE 192 0 192 -48
WIRE 288 0 288 -96
WIRE 464 0 416 0
WIRE 544 0 464 0
WIRE 640 0 544 0
WIRE 784 0 640 0
WIRE -112 16 -112 0
WIRE -16 16 -16 -16
WIRE 464 16 464 0
WIRE 544 16 544 0
WIRE 640 16 640 0
WIRE 784 16 784 0
WIRE 64 64 64 -48
WIRE 96 64 64 64
WIRE 416 64 416 0
WIRE 416 64 384 64
WIRE 464 112 464 80
WIRE 544 112 544 80
WIRE 640 112 640 96
WIRE 640 112 544 112
WIRE 784 112 784 96
WIRE 640 128 640 112
WIRE 64 160 64 64
WIRE 96 160 64 160
WIRE 544 160 544 112
WIRE 544 160 384 160
WIRE 640 224 640 208
WIRE 64 256 64 160
WIRE 96 256 64 256
WIRE 464 256 384 256
WIRE 544 256 464 256
WIRE 640 256 544 256
WIRE 784 256 640 256
WIRE 464 272 464 256
WIRE 544 272 544 256
WIRE 640 272 640 256
WIRE 784 272 784 256
WIRE 64 352 64 256
WIRE 96 352 64 352
WIRE 416 352 384 352
WIRE 464 368 464 336
WIRE 544 368 544 336
WIRE 640 368 640 352
WIRE 640 368 544 368
WIRE 784 368 784 352
WIRE 640 384 640 368
WIRE 416 400 416 352
WIRE 544 400 544 368
WIRE 544 400 416 400
WIRE 192 432 192 416
WIRE 288 432 288 416
WIRE 640 480 640 464
FLAG -112 16 0
FLAG 192 432 0
FLAG 288 432 0
FLAG 464 112 0
FLAG 640 224 0
FLAG 784 112 0
FLAG 464 368 0
FLAG 640 480 0
FLAG 784 368 0
FLAG -112 -96 IN
FLAG 784 0 Vout1
FLAG 784 256 Vout2
FLAG -16 16 0
SYMBOL PowerProducts\\LTC3535 240 208 R0
SYMATTR InstName U1
SYMBOL voltage -112 -96 R0
WINDOW 123 0 0 Left 2
WINDOW 39 0 0 Left 2
SYMATTR InstName V1
SYMATTR Value 1.2
SYMBOL ind 80 -32 R270
WINDOW 0 32 56 VTop 2
WINDOW 3 5 56 VBottom 2
SYMATTR InstName L1
SYMATTR Value 4.7µ
SYMATTR SpiceLine Rser=110m Rpar=10K
SYMBOL ind 160 -80 R270
WINDOW 0 32 56 VTop 2
WINDOW 3 5 56 VBottom 2
SYMATTR InstName L2
SYMATTR Value 4.7µ
SYMATTR SpiceLine Rser=110m Rpar=10K
SYMBOL cap 448 16 R0
SYMATTR InstName C1
SYMATTR Value 10µ
SYMBOL res 624 0 R0
SYMATTR InstName R1
SYMATTR Value 511K
SYMBOL res 624 112 R0
SYMATTR InstName R2
SYMATTR Value 1Meg
SYMBOL cap 448 272 R0
SYMATTR InstName C2
SYMATTR Value 10µ
SYMBOL res 624 256 R0
SYMATTR InstName R3
SYMATTR Value 1.78Meg
SYMBOL res 624 368 R0
SYMATTR InstName R4
SYMATTR Value 1Meg
SYMBOL res 768 0 R0
SYMATTR InstName Rload1
SYMATTR Value 18
SYMBOL res 768 256 R0
SYMATTR InstName Rload2
SYMATTR Value 33
SYMBOL cap 528 16 R0
SYMATTR InstName C3
SYMATTR Value 47p
SYMBOL cap 528 272 R0
SYMATTR InstName C4
SYMATTR Value 20p
SYMBOL cap -32 -80 R0
SYMATTR InstName C5
SYMATTR Value 4.7µ
TEXT 784 448 Left 2 !.tran .75m startup
TEXT 696 0 Bottom 2 ;1.8V
TEXT 712 256 Bottom 2 ;3.3V
TEXT 416 -144 Bottom 2 ;LTC3535 - Dual Channel 550mA 1MHz Synchronous Step-Up DC/DC Converter\nInput: 0.7V to 5V     Output: 1.8V @ 100mA & 3.3V @ 100mA
TEXT -200 488 Left 2 ;Note:\n  If the simulation model is not found please update with the "Sync Release" command from the "Tools" menu.\n  It remains the customer's responsibility to verify proper and reliable operation in the actual application.\n  Component substitution and printed circuit board layout may significantly affect circuit performance or reliability.\n  Contact your local sales representative for assistance. This circuit is distributed to customers only for use with LTC parts.\n  Copyright © 2011 Linear Technology Inc. All rights reserved.
