Version 4
SHEET 1 1496 680
WIRE -64 -640 -160 -640
WIRE 16 -640 -64 -640
WIRE 80 -640 16 -640
WIRE 384 -640 368 -640
WIRE 480 -640 464 -640
WIRE 528 -640 480 -640
WIRE 624 -640 528 -640
WIRE -160 -624 -160 -640
WIRE -64 -624 -64 -640
WIRE 528 -624 528 -640
WIRE 624 -624 624 -640
WIRE 16 -544 16 -640
WIRE 80 -544 16 -544
WIRE 480 -544 480 -640
WIRE 480 -544 368 -544
WIRE -160 -528 -160 -544
WIRE -64 -528 -64 -560
WIRE 528 -528 528 -560
WIRE 624 -528 624 -544
WIRE 80 -448 64 -448
WIRE 400 -448 368 -448
WIRE 400 -352 400 -448
WIRE 400 -352 368 -352
WIRE 224 -288 224 -304
WIRE 16 -256 16 -544
WIRE 400 -256 400 -352
WIRE 400 -256 16 -256
WIRE 512 -256 400 -256
WIRE 16 -192 16 -256
WIRE 80 -192 16 -192
WIRE 384 -192 368 -192
WIRE 480 -192 480 -208
WIRE 480 -192 464 -192
WIRE 16 -96 16 -192
WIRE 80 -96 16 -96
WIRE 480 -96 480 -192
WIRE 480 -96 368 -96
WIRE 16 -80 16 -96
WIRE 16 0 16 -16
WIRE 80 0 16 0
WIRE 400 0 368 0
WIRE 512 0 512 -256
WIRE 512 0 400 0
WIRE 544 64 544 48
WIRE 448 80 448 48
WIRE 400 96 400 0
WIRE 400 96 368 96
WIRE 16 160 16 0
WIRE 224 160 224 144
WIRE 224 160 16 160
WIRE 448 160 448 144
WIRE 448 160 224 160
WIRE 544 160 544 144
WIRE 544 160 448 160
FLAG -64 -528 0
FLAG 528 -528 0
FLAG 624 -528 0
FLAG -160 -528 0
FLAG 224 -288 0
FLAG 64 -448 0
FLAG 448 48 0
FLAG 544 48 0
FLAG 480 -208 0
FLAG 624 -640 OUT1
FLAG 544 160 OUT2
SYMBOL PowerProducts\\LTC3388-3 224 -48 R0
SYMATTR InstName U1
SYMBOL PowerProducts\\LTC3388-3 224 -496 R0
SYMATTR InstName U2
SYMBOL voltage -160 -640 R0
WINDOW 123 0 0 Left 2
WINDOW 39 0 0 Left 2
SYMATTR InstName V1
SYMATTR Value 9
SYMBOL cap -80 -624 R0
SYMATTR InstName C1
SYMATTR Value 2.2µ
SYMBOL cap 512 -624 R0
SYMATTR InstName C2
SYMATTR Value 100µ
SYMATTR SpiceLine Rser=.0002
SYMBOL ind 368 -624 R270
WINDOW 0 32 56 VTop 2
WINDOW 3 5 56 VBottom 2
SYMATTR InstName L1
SYMATTR Value 100µ
SYMATTR SpiceLine Rser=10m
SYMBOL res 608 -640 R0
SYMATTR InstName Rload1
SYMATTR Value 100
SYMBOL cap 432 144 M180
WINDOW 0 24 56 Left 2
WINDOW 3 24 8 Left 2
SYMATTR InstName C3
SYMATTR Value 100µ
SYMATTR SpiceLine Rser=.04
SYMBOL ind 368 -176 R270
WINDOW 0 32 56 VTop 2
WINDOW 3 5 56 VBottom 2
SYMATTR InstName L2
SYMATTR Value 100µ
SYMATTR SpiceLine Rser=10m
SYMBOL res 528 160 M180
WINDOW 0 36 76 Left 2
WINDOW 3 36 40 Left 2
SYMATTR InstName Rload2
SYMATTR Value 100
SYMBOL cap 0 -80 R0
SYMATTR InstName C4
SYMATTR Value 2.2µ
TEXT 672 120 Left 2 !.tran 50m startup
TEXT 664 -640 Left 2 ;5V @ 50mA
TEXT 592 168 Left 2 ;-5V @ 50mA
TEXT 280 -696 Bottom 2 ;LTC3388-3 - 20V High Efficiency Nanopower Step-Down Regulator\nNanopower Split-Voltage Power Supply\nInput: 6V to 12V     Output: 5V @ 50mA & -5V @ 50mA
TEXT -312 176 Left 2 ;Note:\n  If the simulation model is not found please update with the "Sync Release" command from the "Tools" menu.\n  It remains the customer's responsibility to verify proper and reliable operation in the actual application.\n  Component substitution and printed circuit board layout may significantly affect circuit performance or reliability\n  Contact your local sales representative for assistance. This circuit is distributed to customers only for use with LTC parts\n  Copyright © 2012 Linear Technology Inc. All rights reserved.
