Version 4
SHEET 1 1788 892
WIRE 192 -192 32 -192
WIRE 224 -192 192 -192
WIRE 320 -192 304 -192
WIRE 464 -192 320 -192
WIRE 32 -176 32 -192
WIRE 464 -176 464 -192
WIRE 192 -144 192 -192
WIRE 320 -144 320 -192
WIRE 32 -80 32 -112
WIRE 112 -80 32 -80
WIRE 464 -80 464 -112
WIRE 464 -80 400 -80
WIRE 0 16 -112 16
WIRE 80 16 0 16
WIRE 112 16 80 16
WIRE 720 16 400 16
WIRE 832 16 720 16
WIRE 928 16 832 16
WIRE 1024 16 928 16
WIRE -112 32 -112 16
WIRE 0 32 0 16
WIRE 832 32 832 16
WIRE 928 32 928 16
WIRE 1024 32 1024 16
WIRE 720 64 720 16
WIRE 80 112 80 16
WIRE 112 112 80 112
WIRE 432 112 400 112
WIRE 496 112 432 112
WIRE 608 112 576 112
WIRE 832 112 832 96
WIRE -112 128 -112 112
WIRE 0 128 0 96
WIRE 432 128 432 112
WIRE 608 128 608 112
WIRE 928 128 928 96
WIRE 1024 128 1024 112
WIRE 80 208 80 112
WIRE 112 208 80 208
WIRE 432 208 432 192
WIRE 432 208 400 208
WIRE 608 208 608 192
WIRE 608 208 432 208
WIRE 720 208 720 144
WIRE 720 208 608 208
WIRE 832 208 832 192
WIRE 832 208 720 208
WIRE 720 224 720 208
WIRE 80 304 80 208
WIRE 112 304 80 304
WIRE 448 304 400 304
WIRE 720 320 720 304
WIRE 16 400 0 400
WIRE 112 400 96 400
WIRE 448 400 448 304
WIRE 448 400 400 400
WIRE 448 416 448 400
WIRE 192 480 192 464
WIRE 320 480 320 464
WIRE 448 496 448 480
FLAG 192 480 0
FLAG 320 480 0
FLAG 0 400 0
FLAG 448 496 0
FLAG -112 128 0
FLAG -112 16 IN
FLAG 720 320 0
FLAG 928 128 0
FLAG 1024 128 0
FLAG 1024 16 OUT
FLAG 0 128 0
SYMBOL res 112 384 R90
WINDOW 0 0 56 VBottom 2
WINDOW 3 32 56 VTop 2
SYMATTR InstName R7
SYMATTR Value 47.5K
SYMBOL cap 432 416 R0
SYMATTR InstName C9
SYMATTR Value 4.7µ
SYMBOL ind 208 -176 R270
WINDOW 0 32 56 VTop 2
WINDOW 3 5 56 VBottom 2
SYMATTR InstName L1
SYMATTR Value 10µ
SYMATTR SpiceLine Ipk=3.84 Rser=23m
SYMBOL cap 16 -176 R0
SYMATTR InstName C1
SYMATTR Value .1µ
SYMBOL cap 448 -176 R0
SYMATTR Value .1µ
SYMATTR InstName C2
SYMBOL res 704 48 R0
SYMATTR InstName R1
SYMATTR Value 1Meg
SYMBOL res 704 208 R0
SYMATTR InstName R2
SYMATTR Value 249K
SYMBOL cap 816 32 R0
WINDOW 39 24 77 Left 2
SYMATTR InstName C4
SYMATTR Value 33p
SYMBOL cap 912 32 R0
SYMATTR InstName C6
SYMATTR Value 47µ
SYMATTR SpiceLine V=10 Irms=10.206 Rser=0.05 Lser=0
SYMBOL LTC3115-1 256 160 R0
SYMATTR InstName U1
SYMBOL cap -16 32 R0
SYMATTR InstName C10
SYMATTR Value 4.7µ
SYMATTR SpiceLine V=50 Rser=0.005
SYMBOL res 816 96 R0
SYMATTR InstName R3
SYMATTR Value 15K
SYMBOL cap 416 128 R0
SYMATTR InstName C11
SYMATTR Value 10p
SYMBOL cap 592 128 R0
WINDOW 0 40 13 Left 2
WINDOW 3 43 40 Left 2
SYMATTR InstName C8
SYMATTR Value 3300p
SYMBOL res 480 128 R270
WINDOW 0 32 56 VTop 2
WINDOW 3 0 56 VBottom 2
SYMATTR InstName R4
SYMATTR Value 60.4K
SYMBOL voltage -112 16 R0
WINDOW 123 0 0 Left 2
WINDOW 39 0 0 Left 2
SYMATTR InstName Vin
SYMATTR Value 12
SYMBOL res 1008 16 R0
SYMATTR InstName Rload
SYMATTR Value 2.5
TEXT 560 456 Left 2 !.tran 7.5m startup
TEXT 264 -240 Bottom 2 ;LTC3115-1 - 40V, 2A Synchronous Buck-Boost DC/DC Converter\nWide Input Voltage, High Efficiency, Low Noise 5V Regulator\nInput: 2.7V to 40V     Output: 5V @ 2A for Vin > Vout, Fsw = 750kHz
TEXT -280 512 Left 2 ;Notes: \n  If the simulation model is not found please update with the "Sync Release" command from the "Tools" menu.\n  It remains the customer's responsibility to verify proper and reliable operation in the actual application.\n  Component substitution and printed circuit board layout may significantly affect circuit performance or reliability.\n  Contact your local sales representative for assistance. This circuit is distributed to customers only for use with LTC parts.\n  Copyright © 2015 Linear Technology Inc.  All rights reserved.
TEXT 560 488 Left 2 !.softstart .5
