Version 4
SHEET 1 3660 680
WIRE -32 -368 -128 -368
WIRE 80 -368 -32 -368
WIRE 176 -368 80 -368
WIRE 400 -368 176 -368
WIRE 624 -368 400 -368
WIRE -128 -352 -128 -368
WIRE -32 -352 -32 -368
WIRE 80 -352 80 -368
WIRE 400 -352 400 -368
WIRE 176 -304 176 -368
WIRE 400 -272 400 -288
WIRE -128 -256 -128 -272
WIRE -32 -256 -32 -288
WIRE 80 -256 80 -288
WIRE 176 -208 176 -224
WIRE 272 -208 176 -208
WIRE 624 -208 624 -368
WIRE 624 -208 528 -208
WIRE 176 -192 176 -208
WIRE 624 -112 624 -128
WIRE 624 -112 528 -112
WIRE 176 -96 176 -112
WIRE 624 -32 624 -112
WIRE -32 -16 -96 -16
WIRE 96 -16 48 -16
WIRE 272 -16 96 -16
WIRE 576 -16 528 -16
WIRE -96 64 -96 48
WIRE 96 64 96 48
WIRE 192 80 160 80
WIRE 272 80 256 80
WIRE 576 80 528 80
WIRE 624 80 624 64
WIRE 672 80 624 80
WIRE 784 80 752 80
WIRE 816 80 784 80
WIRE 912 80 816 80
WIRE 1008 80 912 80
WIRE 1120 80 1008 80
WIRE 1232 80 1120 80
WIRE 624 96 624 80
WIRE 816 96 816 80
WIRE 912 96 912 80
WIRE 1008 96 1008 80
WIRE 1120 96 1120 80
WIRE 1232 96 1232 80
WIRE 1376 112 1280 112
WIRE 1376 128 1376 112
WIRE 1296 160 1280 160
WIRE 176 176 160 176
WIRE 272 176 256 176
WIRE 544 176 528 176
WIRE 624 176 624 160
WIRE 1008 192 1008 160
WIRE 1120 192 1120 160
WIRE 1232 192 1232 176
WIRE 576 208 576 80
WIRE 816 208 816 176
WIRE 816 208 576 208
WIRE 912 208 912 160
WIRE 912 208 816 208
WIRE 816 224 816 208
WIRE 1376 224 1376 208
WIRE 352 256 352 240
WIRE 448 256 448 240
WIRE 544 272 544 176
WIRE 608 272 544 272
WIRE 784 272 784 80
WIRE 784 272 688 272
WIRE 816 320 816 304
FLAG 352 256 0
FLAG 448 256 0
FLAG -128 -256 0
FLAG 624 176 0
FLAG 816 320 0
FLAG 1008 192 0
FLAG -128 -368 IN
FLAG 1232 80 OUT
FLAG 96 64 0
FLAG -96 64 0
FLAG 160 80 0
FLAG 160 176 0
FLAG 176 -96 0
FLAG 1120 192 0
FLAG 1232 192 0
FLAG 1376 224 0
FLAG 1296 160 0
FLAG -32 -256 0
FLAG 80 -256 0
SYMBOL PowerProducts\\LTC3864 400 -16 R0
SYMATTR InstName U1
SYMBOL voltage -128 -368 R0
SYMATTR InstName V1
SYMATTR Value 24
SYMBOL cap 384 -352 R0
SYMATTR InstName C2
SYMATTR Value 0.47µ
SYMBOL res 608 -224 R0
SYMATTR InstName R1
SYMATTR Value 13m
SYMBOL pmos 576 64 M180
WINDOW 0 64 74 Left 2
WINDOW 3 60 49 Left 2
SYMATTR InstName M1
SYMATTR Value Si7469DP
SYMBOL schottky 608 160 M180
WINDOW 0 24 64 Left 2
WINDOW 3 24 0 Left 2
SYMATTR InstName D1
SYMATTR Value PDS760
SYMATTR Description Diode
SYMATTR Type diode
SYMBOL ind 656 96 R270
WINDOW 0 32 56 VTop 2
WINDOW 3 5 56 VBottom 2
SYMATTR InstName L1
SYMATTR Value 15µ
SYMATTR SpiceLine Rser=20m
SYMBOL res 704 256 R90
WINDOW 0 0 56 VBottom 2
WINDOW 3 32 56 VTop 2
SYMATTR InstName R2
SYMATTR Value 100K
SYMBOL res 800 80 R0
SYMATTR InstName R3
SYMATTR Value 464K
SYMBOL res 800 208 R0
SYMATTR InstName R4
SYMATTR Value 33.2K
SYMBOL cap 992 96 R0
WINDOW 123 29 62 Left 2
WINDOW 3 39 32 Left 2
SYMATTR Value2 x2
SYMATTR Value 6.3µ
SYMATTR InstName C3
SYMATTR SpiceLine V=16 Irms=0 Rser=3m Lser=0
SYMBOL cap 80 -16 R0
WINDOW 0 27 15 Left 2
SYMATTR InstName C4
SYMATTR Value 330p
SYMBOL cap -112 -16 R0
WINDOW 0 26 14 Left 2
WINDOW 39 24 77 Left 2
SYMATTR InstName C1
SYMATTR Value 3300p
SYMBOL cap 896 96 R0
SYMATTR InstName C5
SYMATTR Value 10p
SYMATTR SpiceLine Rser=1K
SYMBOL cap 256 64 R90
WINDOW 0 0 32 VBottom 2
WINDOW 3 32 32 VTop 2
SYMATTR InstName C6
SYMATTR Value 2700p
SYMBOL res 160 -320 R0
SYMATTR InstName R6
SYMATTR Value 100K
SYMBOL res 160 -208 R0
SYMATTR InstName R7
SYMATTR Value 21.5K
SYMBOL res 272 160 R90
WINDOW 0 0 56 VBottom 2
WINDOW 3 32 56 VTop 2
SYMATTR InstName R5
SYMATTR Value 37.4K
SYMBOL cap 1104 96 R0
SYMATTR Value 56µ
SYMATTR InstName C7
SYMATTR SpiceLine V=6.3 Irms=0 Rser=25m Lser=0
SYMBOL sw 1232 192 R180
WINDOW 3 -24 5 Right 2
WINDOW 0 -26 97 Right 2
SYMATTR Value Rload
SYMATTR InstName S1
SYMBOL voltage 1376 112 R0
WINDOW 123 24 138 Left 2
WINDOW 39 24 117 Left 2
SYMATTR Value PULSE(0 1 0.9m 10n 10n 0.1m)
SYMATTR InstName V2
SYMBOL res 64 -32 R90
WINDOW 0 0 56 VBottom 2
WINDOW 3 32 56 VTop 2
SYMATTR InstName R8
SYMATTR Value 10K
SYMBOL cap -48 -352 R0
WINDOW 123 29 62 Left 2
WINDOW 3 39 32 Left 2
SYMATTR Value2 x2
SYMATTR Value 22µ
SYMATTR InstName C8
SYMATTR SpiceLine V=16 Irms=0 Rser=3m Lser=0
SYMBOL cap 64 -352 R0
WINDOW 123 29 62 Left 2
WINDOW 3 39 32 Left 2
SYMATTR Value2 x2
SYMATTR Value 4.7µ
SYMATTR InstName C9
SYMATTR SpiceLine V=16 Irms=0 Rser=3m Lser=0
TEXT 632 -392 Bottom 2 ;LTC3864 - 60V, Low Iq Step-Down DC/DC Controller with 100% Duty Cycle Capability\n60W PMOS Buck Converter\nInput: 12V (6Vmin) to 60V      Output: Vout = 12V @ 5A, Fsw = 200kHz
TEXT 16 328 Left 2 ;Notes:\n    Smaller values are used for SS capacitors to reduce simulation time. See datasheet for typical values.\n    If the simulation model is not found please update with the "Sync Release" command from the "Tools" menu.\n    It remains the customer's responsibility to verify proper and reliable operation in the actual application.\n    Component substitution and printed circuit board layout may significantly affect circuit performance or reliability.\n    Contact your local sales representative for assistance. This circuit is distributed to customers only for use with LTC parts.\n    Copyright © 2017 Linear Technology Inc. All rights reserved.
TEXT 992 280 Left 2 !.tran 1.1m startup\n.model Rload SW(Ron=5 Roff=7.5 Vt=1 Vh=-.4)
