Version 4
SHEET 1 1100 1012
WIRE -992 192 -1088 192
WIRE -912 192 -992 192
WIRE -736 192 -912 192
WIRE -112 192 -736 192
WIRE 288 192 176 192
WIRE 384 192 288 192
WIRE 480 192 384 192
WIRE -1088 208 -1088 192
WIRE -992 208 -992 192
WIRE -736 208 -736 192
WIRE 288 208 288 192
WIRE 384 208 384 192
WIRE 480 208 480 192
WIRE -912 272 -912 192
WIRE -880 272 -912 272
WIRE -576 272 -592 272
WIRE -448 272 -496 272
WIRE -368 272 -448 272
WIRE -272 272 -368 272
WIRE -144 272 -272 272
WIRE -112 272 -144 272
WIRE 240 272 176 272
WIRE -368 288 -368 272
WIRE -272 288 -272 272
WIRE -1088 304 -1088 288
WIRE -992 304 -992 272
WIRE 384 304 384 272
WIRE 480 304 480 288
WIRE 240 320 240 272
WIRE 288 320 288 288
WIRE 288 320 240 320
WIRE -144 352 -144 272
WIRE -112 352 -144 352
WIRE 192 352 176 352
WIRE 288 352 288 320
WIRE -368 384 -368 352
WIRE -272 384 -272 368
WIRE -448 432 -448 272
WIRE -448 432 -592 432
WIRE 288 448 288 432
WIRE -736 512 -736 496
FLAG 192 352 0
FLAG 480 304 0
FLAG 384 304 0
FLAG 480 192 OUT2
FLAG -1088 304 0
FLAG -736 512 0
FLAG -368 384 0
FLAG -992 304 0
FLAG -272 272 OUT1
FLAG -1088 192 IN
FLAG -272 384 0
FLAG 288 448 0
SYMBOL cap 368 208 R0
SYMATTR InstName C1
SYMATTR Value 1µ
SYMBOL VOLTAGE -1088 192 R0
WINDOW 123 0 0 Left 2
WINDOW 39 0 0 Left 2
SYMATTR InstName V1
SYMATTR Value 4
SYMBOL ind -592 288 R270
WINDOW 0 32 56 VTop 2
WINDOW 3 5 56 VBottom 2
SYMATTR InstName L1
SYMATTR Value 2.2µ
SYMBOL cap -1008 208 R0
SYMATTR InstName C2
SYMATTR Value 4.7µ
SYMBOL cap -384 288 R0
SYMATTR InstName C3
SYMATTR Value 10µ
SYMBOL res -288 272 R0
SYMATTR InstName Rload1
SYMATTR Value 5
SYMBOL res 464 192 R0
SYMATTR InstName Rload2
SYMATTR Value 2.4
SYMBOL PowerProducts\\LTC3406-1.5 -736 352 R0
SYMATTR InstName U1
SYMBOL PowerProducts\\LTC3025-1 32 272 R0
SYMATTR InstName U2
SYMBOL res 272 192 R0
SYMATTR InstName R1
SYMATTR Value 80.6K
SYMBOL res 272 336 R0
SYMATTR InstName R2
SYMATTR Value 40.2K
TEXT 328 488 Left 2 !.tran 1m startup
TEXT -320 136 Bottom 2 ;LTC3025-1 - 500mA µPower VLDO Linear Regulator\nLTC3406-1.5 - 1.5MHz, 600mA Synchronous Step-Down Regulator\nInput: 2.7V to5.5V     Output 1: 1.5V @ 600mA     Output 2: 1.2V @ 500mA
TEXT -1016 528 Left 2 ;Note:\n  If the simulation model is not found please update with the "Sync Release" command from the "Tools" menu.\n  It remains the customer's responsibility to verify proper and reliable operation in the actual application.\n  Component substitution and printed circuit board layout may significantly affect circuit performance or reliability\n  Contact your local sales representative for assistance. This circuit is distributed to customers only for use with LTC parts\n  Copyright © 2014 Linear Technology Inc. All rights reserved.
