Version 4
SHEET 1 2004 700
WIRE 1056 -144 1056 -160
WIRE 1008 -80 0 -80
WIRE 864 -32 816 -32
WIRE 1056 -32 1056 -64
WIRE 1056 -32 944 -32
WIRE 1008 0 1008 -80
WIRE 1056 16 1056 -32
WIRE 1056 16 1040 16
WIRE -96 32 -192 32
WIRE 0 32 0 -80
WIRE 0 32 -96 32
WIRE 96 32 0 32
WIRE 432 32 384 32
WIRE 560 32 512 32
WIRE 672 32 672 0
WIRE 672 32 560 32
WIRE 816 32 816 -32
WIRE 976 32 816 32
WIRE -192 48 -192 32
WIRE -96 48 -96 32
WIRE 560 48 560 32
WIRE 672 48 672 32
WIRE 816 48 816 32
WIRE 1072 48 1040 48
WIRE 1184 48 1152 48
WIRE 1184 64 1184 48
WIRE 1008 80 1008 64
WIRE 0 128 0 112
WIRE 96 128 0 128
WIRE 416 128 384 128
WIRE -192 144 -192 128
WIRE -96 144 -96 112
WIRE 0 144 0 128
WIRE 416 144 416 128
WIRE 816 144 816 128
WIRE 816 144 416 144
WIRE 1184 160 1184 144
WIRE 96 224 0 224
WIRE 0 320 0 224
WIRE 96 320 0 320
WIRE 816 320 816 144
WIRE 416 416 384 416
WIRE 0 512 0 320
WIRE 416 512 416 416
WIRE 416 512 0 512
WIRE 560 512 560 112
WIRE 560 512 416 512
WIRE 672 512 672 128
WIRE 672 512 560 512
WIRE 816 512 816 400
WIRE 816 512 672 512
FLAG -192 144 0
FLAG -192 32 IN
FLAG 672 0 0
FLAG 1184 160 0
FLAG 672 512 OUT
FLAG 1008 80 0
FLAG 1056 -160 0
FLAG -96 144 0
FLAG 1184 48 CTRL
SYMBOL PowerProducts\\LTC3630 240 224 R0
SYMATTR InstName U1
SYMBOL voltage -192 32 R0
WINDOW 123 0 0 Left 2
WINDOW 39 0 0 Left 2
SYMATTR InstName V1
SYMATTR Value 24
SYMBOL ind 416 48 R270
WINDOW 0 32 56 VTop 2
WINDOW 3 5 56 VBottom 2
SYMATTR InstName L1
SYMATTR Value 22µ
SYMATTR SpiceLine Rser=50m
SYMBOL cap 544 48 R0
WINDOW 3 38 37 Left 2
WINDOW 123 23 64 Left 2
SYMATTR Value 22µ
SYMATTR Value2 x2
SYMATTR InstName C1
SYMATTR SpiceLine V=25 Irms=0 Rser=0.003 Lser=0 mfg="TDK" pn="C575OX5RIE226M" type="X5R"
SYMBOL res 656 32 R0
SYMATTR InstName Rload
SYMATTR Value 100
SYMBOL res -16 16 R0
SYMATTR InstName R1
SYMATTR Value 200K
SYMBOL res -16 128 R0
SYMATTR InstName R2
SYMATTR Value 15K
SYMBOL voltage 1184 48 R0
WINDOW 123 0 0 Left 2
WINDOW 39 0 0 Left 2
SYMATTR InstName V2
SYMATTR Value PULSE(5 0 5m 15m 15m 2m)
SYMBOL res 1168 32 R90
WINDOW 0 0 56 VBottom 2
WINDOW 3 32 56 VTop 2
SYMATTR InstName R5
SYMATTR Value 5K
SYMBOL res 800 304 R0
SYMATTR InstName R3
SYMATTR Value 8.06K
SYMATTR SpiceLine tol=1 pwr=0.1
SYMBOL res 800 32 R0
SYMATTR InstName R4
SYMATTR Value 191K
SYMATTR SpiceLine tol=1 pwr=0.1
SYMBOL res 960 -48 R90
WINDOW 0 0 56 VBottom 2
WINDOW 3 32 56 VTop 2
SYMATTR InstName R6
SYMATTR Value 30.1K
SYMBOL res 1040 -160 R0
SYMATTR InstName R7
SYMATTR Value 10K
SYMBOL Opamps\\LT6015 1008 32 M0
SYMATTR InstName U2
SYMBOL cap -112 48 R0
SYMATTR InstName C2
SYMATTR Value 10µ
SYMATTR SpiceLine V=35 Rser=5m
TEXT 864 496 Left 2 !.tran 42m startup
TEXT 1208 192 Left 2 ;LTC2630-H DAC
TEXT -104 544 Left 2 ;Note:\n  If the simulation model is not found please update with the "Sync Release" command from the "Tools" menu.\n  It remains the customer's responsibility to verify proper and reliable operation in the actual application.\n  Component substitution and printed circuit board layout may significantly affect circuit performance or reliability\n  Contact your local sales representative for assistance. This circuit is distributed to customers only for use with LTC parts\n  Copyright © 2015 Linear Technology Inc. All rights reserved.
TEXT 552 -120 Bottom 2 ;LTC3630 - High Efficiency, 65V 500mA Synchronous Step-Down Converter\nLT6015 - 3.2MHz, 0.8V/µs Low Power, Over-The-Top Precision Op Amps\nPositive to Negative Converter with Variable Output\nInput: 24V     Output: 0 to -20V @ 200mA (CTRL: 0V to 5V)
