Version 4
SHEET 1 3816 2900
WIRE 1072 -432 320 -432
WIRE -576 -416 -672 -416
WIRE -496 -416 -576 -416
WIRE -384 -416 -496 -416
WIRE -288 -416 -384 -416
WIRE 32 -416 -288 -416
WIRE 720 -416 32 -416
WIRE -672 -400 -672 -416
WIRE -496 -400 -496 -416
WIRE -384 -400 -384 -416
WIRE 176 -400 -192 -400
WIRE 560 -400 176 -400
WIRE 592 -400 560 -400
WIRE 544 -384 -64 -384
WIRE 592 -384 592 -400
WIRE 32 -352 32 -416
WIRE 176 -352 176 -400
WIRE 320 -352 320 -432
WIRE -672 -304 -672 -320
WIRE -496 -304 -496 -336
WIRE -384 -304 -384 -336
WIRE 592 -304 592 -320
WIRE -576 -288 -576 -416
WIRE -192 -272 -192 -400
WIRE -176 -272 -192 -272
WIRE -48 -272 -96 -272
WIRE 416 -272 400 -272
WIRE 512 -272 496 -272
WIRE -576 -176 -576 -208
WIRE -64 -176 -64 -384
WIRE -64 -176 -576 -176
WIRE -48 -176 -64 -176
WIRE 544 -176 544 -384
WIRE 544 -176 400 -176
WIRE -576 -160 -576 -176
WIRE -288 -160 -288 -416
WIRE 720 -160 720 -416
WIRE -48 -80 -240 -80
WIRE 672 -80 400 -80
WIRE -576 -64 -576 -80
WIRE -192 -64 -192 -272
WIRE 560 -64 560 -400
WIRE -192 16 -192 0
WIRE -48 16 -192 16
WIRE 560 16 560 0
WIRE 560 16 400 16
WIRE -192 32 -192 16
WIRE 560 32 560 16
WIRE -816 112 -944 112
WIRE -704 112 -816 112
WIRE -656 112 -704 112
WIRE -576 112 -656 112
WIRE -560 112 -576 112
WIRE -464 112 -480 112
WIRE -416 112 -464 112
WIRE -288 112 -288 -64
WIRE -288 112 -336 112
WIRE -192 112 -192 96
WIRE -192 112 -288 112
WIRE -48 112 -192 112
WIRE 560 112 560 96
WIRE 560 112 400 112
WIRE 720 112 720 -64
WIRE 720 112 560 112
WIRE 800 112 720 112
WIRE 912 112 880 112
WIRE 928 112 912 112
WIRE 1024 112 1008 112
WIRE 1072 112 1072 -432
WIRE 1072 112 1024 112
WIRE 1136 112 1072 112
WIRE 1232 112 1136 112
WIRE 1328 112 1232 112
WIRE -944 128 -944 112
WIRE -816 128 -816 112
WIRE -656 128 -656 112
WIRE -288 128 -288 112
WIRE 720 128 720 112
WIRE 1072 128 1072 112
WIRE 1232 128 1232 112
WIRE 1328 144 1328 112
WIRE -48 208 -240 208
WIRE 672 208 400 208
WIRE -944 224 -944 208
WIRE -816 224 -816 192
WIRE -656 224 -656 192
WIRE 1072 224 1072 192
WIRE 1232 224 1232 192
WIRE -288 240 -288 224
WIRE 720 240 720 224
WIRE 1328 240 1328 224
WIRE -464 304 -464 112
WIRE -256 304 -464 304
WIRE -112 304 -176 304
WIRE -48 304 -112 304
WIRE 464 304 400 304
WIRE 528 304 464 304
WIRE 912 304 912 112
WIRE 912 304 608 304
WIRE -112 320 -112 304
WIRE 464 320 464 304
WIRE -704 384 -704 112
WIRE 1136 384 1136 112
WIRE -576 400 -576 112
WIRE -112 400 -112 384
WIRE -112 400 -576 400
WIRE -48 400 -112 400
WIRE 464 400 464 384
WIRE 464 400 400 400
WIRE 1024 400 1024 112
WIRE 1024 400 464 400
WIRE -704 496 -704 464
WIRE -48 496 -704 496
WIRE 1136 496 1136 464
WIRE 1136 496 400 496
WIRE -704 512 -704 496
WIRE 1136 512 1136 496
WIRE -48 592 -256 592
WIRE 592 592 400 592
WIRE 688 592 656 592
WIRE -704 608 -704 592
WIRE 1136 608 1136 592
WIRE -160 688 -176 688
WIRE -48 688 -96 688
WIRE 416 688 400 688
WIRE 512 688 480 688
WIRE 32 768 32 752
WIRE 176 768 176 752
WIRE 320 768 320 752
FLAG -672 -304 0
FLAG 32 768 0
FLAG 320 768 0
FLAG 720 240 0
FLAG 592 -304 0
FLAG 1072 224 0
FLAG 688 592 0
FLAG -288 240 0
FLAG -656 224 0
FLAG -704 608 0
FLAG 1328 240 0
FLAG -320 592 0
FLAG -176 688 0
FLAG -672 -416 IN
FLAG 1328 112 OUT2
FLAG -384 -304 0
FLAG -576 -64 0
FLAG 1232 224 0
FLAG -816 224 0
FLAG 512 -272 0
FLAG -496 -304 0
FLAG -944 112 OUT1
FLAG -944 224 0
FLAG 1136 608 0
FLAG 512 688 0
SYMBOL voltage -672 -416 R0
SYMATTR InstName V1
SYMATTR Value 48
SYMBOL nmos 672 -160 R0
WINDOW 0 56 20 Left 2
WINDOW 3 54 64 Left 2
SYMATTR InstName Q1
SYMATTR Value BSZ100N06LS3
SYMBOL nmos 672 128 R0
SYMATTR InstName Q2
SYMATTR Value BSZ100N06LS3
SYMBOL schottky 544 -64 R0
WINDOW 3 27 64 Left 2
SYMATTR Value MBRS1100
SYMATTR InstName D1
SYMATTR Description Diode
SYMATTR Type diode
SYMBOL cap 576 -384 R0
SYMATTR InstName C1
SYMATTR Value 4.7µ
SYMBOL cap 544 32 R0
SYMATTR InstName C2
SYMATTR Value .1µ
SYMBOL ind 784 128 R270
WINDOW 0 32 56 VTop 2
WINDOW 3 5 56 VBottom 2
SYMATTR InstName L1
SYMATTR Value 8µ
SYMBOL res 912 128 R270
WINDOW 0 32 56 VTop 2
WINDOW 3 0 56 VBottom 2
SYMATTR InstName R1
SYMATTR Value 10m
SYMBOL cap 1056 128 R0
SYMATTR InstName C3
SYMATTR Value 10µ
SYMBOL nmos -240 -160 M0
SYMATTR InstName Q3
SYMATTR Value BSZ100N06LS3
SYMBOL nmos -240 128 M0
WINDOW 0 0 30 Right 2
WINDOW 3 24 101 Right 2
SYMATTR InstName Q4
SYMATTR Value BSZ100N06LS3
SYMBOL schottky -208 -64 R0
WINDOW 3 22 58 Left 2
SYMATTR Value MBRS1100
SYMATTR InstName D2
SYMATTR Description Diode
SYMATTR Type diode
SYMBOL cap -208 32 R0
SYMATTR InstName C4
SYMATTR Value .1µ
SYMBOL ind -320 128 M270
WINDOW 0 32 56 VTop 2
WINDOW 3 5 56 VBottom 2
SYMATTR InstName L2
SYMATTR Value 4.7µ
SYMBOL res -464 128 M270
WINDOW 0 32 56 VTop 2
WINDOW 3 0 56 VBottom 2
SYMATTR InstName R2
SYMATTR Value 8m
SYMBOL cap -672 128 R0
SYMATTR InstName C5
SYMATTR Value 10µ
SYMBOL res -720 368 R0
SYMATTR InstName R3
SYMATTR Value 100K
SYMBOL res -720 496 R0
SYMATTR InstName R4
SYMATTR Value 31.6K
SYMBOL cap -256 608 M270
WINDOW 0 32 32 VTop 2
WINDOW 3 0 32 VBottom 2
WINDOW 39 -22 36 VBottom 2
SYMATTR InstName C6
SYMATTR Value 1n
SYMATTR SpiceLine Rser=20K Cpar=47p
SYMBOL cap -96 704 M270
WINDOW 0 32 32 VTop 2
WINDOW 3 0 32 VBottom 2
SYMATTR InstName C7
SYMATTR Value .001µ
SYMBOL cap -400 -400 R0
WINDOW 3 42 34 Left 2
WINDOW 39 27 58 Left 2
SYMATTR InstName C8
SYMATTR Value 2.2µ
SYMATTR SpiceLine x3
SYMBOL res -592 -304 R0
SYMATTR InstName R5
SYMATTR Value 499k
SYMBOL res -592 -176 R0
SYMATTR InstName R6
SYMATTR Value 40.2K
SYMBOL polcap 1216 128 R0
SYMATTR InstName C9
SYMATTR Value 220µ
SYMATTR SpiceLine Rser=0.01
SYMBOL polcap -832 128 R0
SYMATTR InstName C10
SYMATTR Value 330µ
SYMATTR SpiceLine Rser=0.01
SYMBOL res 400 -256 R270
WINDOW 0 32 56 VTop 2
WINDOW 3 0 56 VBottom 2
SYMATTR InstName R7
SYMATTR Value 41.2K
SYMBOL polcap -512 -400 R0
SYMATTR InstName C11
SYMATTR Value 47µ
SYMATTR SpiceLine Rser=0.01
SYMBOL res -192 -256 R270
WINDOW 0 32 56 VTop 2
WINDOW 3 0 56 VBottom 2
SYMATTR InstName R8
SYMATTR Value 100K
SYMBOL cap 448 320 R0
SYMATTR InstName C12
SYMATTR Value 2.2p
SYMBOL res 624 288 R90
WINDOW 0 0 56 VBottom 2
WINDOW 3 32 56 VTop 2
SYMATTR InstName R9
SYMATTR Value 100
SYMBOL cap -128 320 R0
SYMATTR InstName C13
SYMATTR Value 2.2p
SYMBOL res -160 288 R90
WINDOW 0 0 56 VBottom 2
WINDOW 3 32 56 VTop 2
SYMATTR InstName R10
SYMATTR Value 100
SYMBOL res 1120 368 R0
SYMATTR InstName R11
SYMATTR Value 100K
SYMBOL res 1120 496 R0
SYMATTR InstName R12
SYMATTR Value 10.5K
SYMBOL cap 592 608 R270
WINDOW 0 32 32 VTop 2
WINDOW 3 0 32 VBottom 2
WINDOW 39 -22 36 VBottom 2
SYMATTR InstName C14
SYMATTR Value 470p
SYMATTR SpiceLine Rser=34.8K Cpar=47p
SYMBOL cap 416 704 R270
WINDOW 0 32 32 VTop 2
WINDOW 3 0 32 VBottom 2
SYMATTR InstName C15
SYMATTR Value .001µ
SYMBOL res -960 112 R0
SYMATTR InstName Rload1
SYMATTR Value 0.66
SYMBOL res 1312 128 R0
SYMATTR InstName Rload2
SYMATTR Value 2.83
SYMBOL PowerProducts\\LTC3890-1 176 208 R0
SYMATTR InstName U1
TEXT 896 680 Left 2 !.tran 1m startup
TEXT -464 752 Left 2 ;Notes:\n  \n  If the simulation model is not found please update with the "Sync Release" command from the "Tools" menu.\n  It remains the customer's responsibility to verify proper and reliable operation in the actual application.\n  Component substitution and printed circuit board layout may significantly affect circuit performance or reliability.\n  Contact your local sales representative for assistance. This circuit is distributed to customers only for use with LTC parts.\n  Copyright © 2011 Linear Technology Inc. All rights reserved.
TEXT 168 -440 Bottom 2 ;LTC3890 - 60V Low IQ, Dual output, 2-Phase Synchronous Step-Down DC/DC Controller\nInput: 4.5V up to 60V   Outputs: 8.5V@3A  and 3.3V@5A
TEXT 1224 112 Bottom 2 ;8.5V@3A
TEXT -816 112 Bottom 2 ;3.3V@5A
