Version 4
SHEET 1 2940 1036
WIRE -304 -128 -416 -128
WIRE -208 -128 -304 -128
WIRE -128 -128 -208 -128
WIRE 96 -128 -128 -128
WIRE 304 -128 96 -128
WIRE 1520 -128 304 -128
WIRE -416 -112 -416 -128
WIRE -304 -112 -304 -128
WIRE 304 -112 304 -128
WIRE 1360 -96 800 -96
WIRE 96 -80 96 -128
WIRE -208 -64 -208 -128
WIRE -416 -16 -416 -32
WIRE -304 -16 -304 -48
WIRE -128 -16 -128 -128
WIRE -48 -16 -128 -16
WIRE 304 -16 304 -32
WIRE 304 -16 240 -16
WIRE 368 -16 304 -16
WIRE 544 -16 432 -16
WIRE 768 -16 544 -16
WIRE 816 -16 768 -16
WIRE 1296 -16 1264 -16
WIRE 1360 -16 1360 -96
WIRE 1360 -16 1296 -16
WIRE 544 0 544 -16
WIRE 1360 0 1360 -16
WIRE 1520 0 1520 -128
WIRE -208 64 -208 0
WIRE -160 64 -208 64
WIRE -48 64 -96 64
WIRE 320 64 240 64
WIRE 544 80 544 64
WIRE 816 80 544 80
WIRE 1472 80 1264 80
WIRE 320 128 320 64
WIRE 416 128 320 128
WIRE 768 128 768 -16
WIRE 768 128 496 128
WIRE -48 144 -80 144
WIRE 288 144 240 144
WIRE 288 176 288 144
WIRE 800 176 800 -96
WIRE 816 176 800 176
WIRE 1360 176 1360 64
WIRE 1360 176 1264 176
WIRE 1392 176 1360 176
WIRE 1520 176 1520 96
WIRE 1520 176 1456 176
WIRE 1296 192 1296 -16
WIRE -80 224 -80 144
WIRE 1520 272 1520 176
WIRE 1520 272 1264 272
WIRE 1568 272 1520 272
WIRE 1616 272 1568 272
WIRE 1728 272 1696 272
WIRE 1744 272 1728 272
WIRE 1840 272 1824 272
WIRE 1888 272 1840 272
WIRE 1936 272 1888 272
WIRE 2000 272 1936 272
WIRE 288 288 288 256
WIRE 1520 288 1520 272
WIRE 1936 288 1936 272
WIRE 1568 320 1568 272
WIRE 544 368 544 80
WIRE 720 368 544 368
WIRE 816 368 784 368
WIRE 1472 368 1264 368
WIRE 1520 432 1520 384
WIRE 1568 432 1568 384
WIRE 1568 432 1520 432
WIRE 544 464 544 368
WIRE 656 464 544 464
WIRE 816 464 720 464
WIRE 1328 464 1264 464
WIRE 1728 464 1728 272
WIRE 1728 464 1408 464
WIRE 2000 496 2000 272
WIRE 1888 544 1888 272
WIRE 544 560 544 464
WIRE 816 560 544 560
WIRE 1328 560 1264 560
WIRE 1840 560 1840 272
WIRE 1840 560 1408 560
WIRE 544 656 544 560
WIRE 816 656 544 656
WIRE 1888 656 1888 624
WIRE 1888 656 1264 656
WIRE 1888 672 1888 656
WIRE -208 768 -208 64
WIRE -80 768 -80 304
WIRE -80 768 -208 768
WIRE 96 768 96 208
WIRE 96 768 -80 768
WIRE 288 768 288 352
WIRE 288 768 96 768
WIRE 544 768 544 656
WIRE 544 768 288 768
WIRE 1296 768 1296 256
WIRE 1296 768 544 768
WIRE 1520 768 1520 432
WIRE 1520 768 1296 768
WIRE 1888 768 1888 752
WIRE 1888 768 1520 768
WIRE 2000 768 2000 560
WIRE 2000 768 1888 768
WIRE 2048 768 2000 768
WIRE 2048 784 2048 768
WIRE 2048 880 2048 864
FLAG -416 -16 0
FLAG -416 -128 IN
FLAG 1936 288 0
FLAG 2048 768 OUT
FLAG -304 -16 0
FLAG 2048 880 0
SYMBOL nmos 1472 0 R0
SYMATTR InstName Q1
SYMATTR Value Si4840DY
SYMBOL nmos 1472 288 R0
WINDOW 3 34 107 Right 0
WINDOW 0 52 21 Left 0
SYMATTR Value Si4840DY
SYMATTR InstName Q2
SYMBOL ind 1600 288 R270
WINDOW 0 32 56 VTop 0
WINDOW 3 5 56 VBottom 0
SYMATTR InstName L1
SYMATTR Value 4.7µ
SYMATTR SpiceLine Rser=0.002
SYMBOL res 1728 288 R270
WINDOW 0 32 56 VTop 0
WINDOW 3 0 56 VBottom 0
SYMATTR InstName R1
SYMATTR Value .012
SYMBOL res 1872 528 R0
SYMATTR InstName R2
SYMATTR Value 215K
SYMBOL res 1872 656 R0
SYMATTR InstName R3
SYMATTR Value 39.2K
SYMBOL cap 1392 192 R270
WINDOW 0 32 32 VTop 0
WINDOW 3 0 32 VBottom 0
SYMATTR InstName C1
SYMATTR Value .1µ
SYMBOL schottky 1344 0 R0
WINDOW 3 22 66 Left 0
SYMATTR Value MBR0540
SYMATTR InstName D1
SYMATTR Description Diode
SYMATTR Type diode
SYMBOL cap 1280 192 R0
SYMATTR InstName C2
SYMATTR Value 4.7µ
SYMBOL cap 720 448 R90
WINDOW 0 0 32 VBottom 0
WINDOW 3 32 32 VTop 0
WINDOW 39 60 32 VTop 0
SYMATTR InstName C3
SYMATTR Value 4.7n
SYMATTR SpiceLine Rser=10K Cpar=100p
SYMBOL cap 784 352 R90
WINDOW 0 0 32 VBottom 0
WINDOW 3 32 32 VTop 0
SYMATTR InstName C4
SYMATTR Value {0.01µ/10}
SYMBOL voltage -416 -128 R0
WINDOW 123 24 146 Left 0
WINDOW 39 24 125 Left 0
SYMATTR Value 11
SYMATTR InstName V1
SYMBOL cap 1984 496 R0
SYMATTR InstName C5
SYMATTR Value 300µ
SYMATTR SpiceLine Rser=0.005
SYMBOL cap 528 0 R0
SYMATTR InstName C6
SYMATTR Value 10µ
SYMATTR SpiceLine Rser=0.01
SYMBOL res 1424 448 R90
WINDOW 0 0 56 VBottom 0
WINDOW 3 32 56 VTop 0
SYMATTR InstName R4
SYMATTR Value 10
SYMBOL res 1424 544 R90
WINDOW 0 0 56 VBottom 0
WINDOW 3 32 56 VTop 0
SYMATTR InstName R5
SYMATTR Value 10
SYMBOL PowerProducts\\LTC3835-1 1040 320 R0
SYMATTR InstName U1
SYMBOL schottky 1552 384 M180
WINDOW 0 24 72 Left 0
WINDOW 3 24 0 Left 0
SYMATTR InstName D2
SYMATTR Value 1N5818
SYMATTR Description Diode
SYMATTR Type diode
SYMBOL cap -320 -112 R0
SYMATTR InstName C7
SYMATTR Value 100µ
SYMBOL PowerProducts\\LT3580 96 64 R0
SYMATTR InstName U2
SYMBOL ind 288 -128 R0
SYMATTR InstName L2
SYMATTR Value 150µ
SYMBOL res 512 112 R90
WINDOW 0 0 56 VBottom 0
WINDOW 3 32 56 VTop 0
SYMATTR InstName R6
SYMATTR Value 80.6k
SYMBOL cap 272 288 R0
SYMATTR InstName C8
SYMATTR Value .01µ
SYMBOL res -96 208 R0
SYMATTR InstName R7
SYMATTR Value 84.5K
SYMBOL cap -224 -64 R0
SYMATTR InstName C9
SYMATTR Value 1µ
SYMBOL cap -96 48 R90
WINDOW 0 0 32 VBottom 0
WINDOW 3 32 32 VTop 0
SYMATTR InstName C10
SYMATTR Value {0.01µ/10}
SYMBOL res 272 160 R0
SYMATTR InstName R8
SYMATTR Value 20K
SYMBOL schottky 368 0 R270
WINDOW 0 32 32 VTop 0
WINDOW 3 0 32 VBottom 0
SYMATTR InstName D3
SYMATTR Value 1N5819
SYMATTR Description Diode
SYMATTR Type diode
SYMBOL res 2032 768 R0
SYMATTR InstName Rload
SYMATTR Value 5
TEXT 1744 824 Left 0 !.tran 1.5m startup
TEXT 1616 784 Left 0 ;-5.2V Rail
TEXT 744 -192 Bottom 0 ;This is SPICE simulation of the wide input voltage range (2V to 20V) positive to negative converter.\nInput: 2 -20V       Output: -5.2V @ 1A
TEXT 816 -136 Bottom 0 ;Synchronous buck controller LTC3835-1 U1 employed for actual Positive to Negative conversion and monolithic boost LT3580 used for biasing U1 at low voltages.
TEXT 336 784 Left 0 ;Notes:\n  The softstart caps have been reduced by a factor of 10 in the interest of shortening simulation time.\n \n  If the simulation model is not found please update with the "Sync Release" command from the "Tools" menu.\n  It remains the customer's responsibility to verify proper and reliable operation in the actual application.\n  Component substitution and printed circuit board layout may significantly affect circuit performance or reliability.\n  Contact your local sales representative for assistance. This circuit is distributed to customers only for use with LTC parts.\n  Copyright © 2010 Linear Technology Inc. All rights reserved.
