Version 4
SHEET 1 2312 976
WIRE -144 -48 -256 -48
WIRE 160 -48 -144 -48
WIRE 384 -48 160 -48
WIRE -144 -32 -144 -48
WIRE 64 -32 -48 -32
WIRE 560 -32 64 -32
WIRE 736 -32 560 -32
WIRE 864 -32 736 -32
WIRE 560 -16 560 -32
WIRE 736 -16 736 -32
WIRE 864 -16 864 -32
WIRE 64 0 64 -32
WIRE 160 0 160 -48
WIRE -256 16 -256 -48
WIRE -144 48 -144 32
WIRE -48 64 -48 -32
WIRE -32 64 -48 64
WIRE 512 64 352 64
WIRE 384 80 384 -48
WIRE 736 80 736 48
WIRE 864 80 864 64
WIRE -256 160 -256 96
WIRE -32 160 -256 160
WIRE 384 160 384 144
WIRE 384 160 352 160
WIRE 496 160 384 160
WIRE 560 160 560 80
WIRE 560 256 560 160
WIRE 560 256 352 256
WIRE 624 256 560 256
WIRE 736 256 704 256
WIRE 752 256 736 256
WIRE 848 256 832 256
WIRE 896 256 848 256
WIRE 944 256 896 256
WIRE 1072 256 944 256
WIRE 1168 256 1072 256
WIRE 560 272 560 256
WIRE 944 272 944 256
WIRE 1072 272 1072 256
WIRE 1168 272 1168 256
WIRE -128 352 -144 352
WIRE -32 352 -48 352
WIRE 512 352 352 352
WIRE 944 368 944 336
WIRE 1072 368 1072 336
WIRE 1168 368 1168 352
WIRE 560 384 560 368
WIRE -32 448 -64 448
WIRE 736 448 736 256
WIRE 736 448 352 448
WIRE 896 496 896 256
WIRE -128 544 -160 544
WIRE -32 544 -64 544
WIRE 848 544 848 256
WIRE 848 544 352 544
WIRE -176 640 -192 640
WIRE -32 640 -112 640
WIRE 896 640 896 576
WIRE 896 640 352 640
WIRE 896 656 896 640
WIRE 80 720 80 704
WIRE 240 720 240 704
WIRE 896 752 896 736
FLAG 560 384 0
FLAG 944 368 0
FLAG 1168 368 0
FLAG 896 752 0
FLAG 1168 256 OUT
FLAG -144 48 0
FLAG -192 640 0
FLAG -160 544 0
FLAG 864 80 0
FLAG 864 -32 IN
FLAG 80 720 0
FLAG 240 720 0
FLAG -144 352 0
FLAG 1072 368 0
FLAG 736 80 0
FLAG -64 448 0
SYMBOL nmos 512 -16 R0
SYMATTR InstName Q1
SYMATTR Value Si7850DP
SYMBOL ind 608 272 R270
WINDOW 0 32 56 VTop 0
WINDOW 3 5 56 VBottom 0
SYMATTR InstName L1
SYMATTR Value 4.7µ
SYMATTR SpiceLine Rser=1.5m
SYMBOL cap 928 272 R0
WINDOW 39 26 59 Left 0
WINDOW 3 37 34 Left 0
SYMATTR SpiceLine Rser=1m
SYMATTR Value 10µ
SYMATTR InstName C1
SYMBOL res 880 480 R0
SYMATTR InstName R1
SYMATTR Value 357K
SYMBOL res 880 640 R0
SYMATTR InstName R2
SYMATTR Value 113K
SYMBOL cap 496 176 R270
WINDOW 0 32 32 VTop 0
WINDOW 3 0 32 VBottom 0
SYMATTR InstName C2
SYMATTR Value .1µ
SYMBOL cap -160 -32 R0
SYMATTR InstName C3
SYMATTR Value 4.7µ
SYMBOL cap -112 624 R90
WINDOW 0 0 32 VBottom 0
WINDOW 3 32 32 VTop 0
WINDOW 39 60 48 VTop 0
SYMATTR InstName C4
SYMATTR Value 4700p
SYMATTR SpiceLine Rser=15K Cpar=100p
SYMBOL cap -64 528 R90
WINDOW 0 0 32 VBottom 0
WINDOW 3 32 32 VTop 0
SYMATTR InstName C5
SYMATTR Value .01µ
SYMBOL voltage 864 -32 R0
WINDOW 3 20 93 Left 0
WINDOW 123 0 0 Left 0
WINDOW 39 0 0 Left 0
SYMATTR Value 48
SYMATTR InstName V1
SYMBOL schottky 368 80 R0
WINDOW 3 20 64 Left 0
WINDOW 0 21 2 Left 0
SYMATTR Value MBRS1100
SYMATTR InstName D1
SYMATTR Description Diode
SYMATTR Type diode
SYMBOL nmos 512 272 R0
SYMATTR InstName Q2
SYMATTR Value Si7850DP
SYMBOL res 1152 256 R0
SYMATTR InstName Rload
SYMATTR Value .66
SYMBOL PowerProducts\\LTC3891 160 352 R0
SYMATTR InstName U1
SYMBOL res 736 272 R270
WINDOW 0 32 56 VTop 0
WINDOW 3 0 56 VBottom 0
SYMATTR InstName R4
SYMATTR Value 8m
SYMBOL res -32 336 R90
WINDOW 0 0 56 VBottom 0
WINDOW 3 32 56 VTop 0
SYMATTR InstName R3
SYMATTR Value 41.2K
SYMBOL polcap 1056 272 R0
SYMATTR InstName C6
SYMATTR Value 330µ
SYMATTR SpiceLine Rser=10m
SYMBOL res -272 0 R0
SYMATTR InstName R5
SYMATTR Value 100K
SYMBOL cap 720 -16 R0
SYMATTR InstName C7
SYMATTR Value 2.2µ
TEXT 1032 720 Left 0 !.tran 1m startup
TEXT -208 768 Left 0 ;Note:\n  If the simulation model is not found please update with the "Sync Release" command from the "Tools" menu.\n  It remains the customer's responsibility to verify proper and reliable operation in the actual application.\n  Component substitution and printed circuit board layout may significantly affect circuit performance or reliability.\n  Contact your local sales representative for assistance. This circuit is distributed to customers only for use with LTC parts.\n  Copyright © 2011 Linear Technology Inc. All rights reserved.
TEXT 336 -56 Bottom 0 ;LTC3891 - 60V Low IQ, Single output, Synchronous Step-Down DC/DC Controller\nVIN: 4.5V up to 60V; Vout : 3.3V@5A
