Version 4
SHEET 1 1212 700
WIRE 160 -32 16 -32
WIRE 288 -32 160 -32
WIRE 384 -32 288 -32
WIRE 496 -32 384 -32
WIRE 16 -16 16 -32
WIRE 288 -16 288 -32
WIRE 384 -16 384 -32
WIRE 160 48 160 -32
WIRE 208 48 160 48
WIRE 496 48 496 -32
WIRE 496 48 464 48
WIRE 16 80 16 64
WIRE -96 144 -192 144
WIRE -16 144 -96 144
WIRE 64 144 -16 144
WIRE 112 144 64 144
WIRE 208 144 192 144
WIRE 480 144 464 144
WIRE 576 144 560 144
WIRE 672 144 576 144
WIRE 768 144 672 144
WIRE 848 144 768 144
WIRE -192 160 -192 144
WIRE -96 160 -96 144
WIRE -16 160 -16 144
WIRE 64 160 64 144
WIRE 576 160 576 144
WIRE 672 160 672 144
WIRE 768 160 768 144
WIRE 848 160 848 144
WIRE 208 240 192 240
WIRE 480 240 464 240
WIRE -192 256 -192 240
WIRE -96 256 -96 224
WIRE -16 256 -16 224
WIRE 64 256 64 240
WIRE 64 256 -16 256
WIRE 192 256 192 240
WIRE 192 256 64 256
WIRE 480 256 480 240
WIRE 576 256 576 240
WIRE 576 256 480 256
WIRE 672 256 672 224
WIRE 672 256 576 256
WIRE 768 256 768 224
WIRE 848 256 848 240
WIRE 64 272 64 256
WIRE 576 272 576 256
WIRE 336 320 336 304
WIRE 64 368 64 352
WIRE 576 368 576 352
FLAG 16 80 0
FLAG 336 320 0
FLAG 16 -32 IN
FLAG -96 256 0
FLAG -192 256 0
FLAG 64 368 0
FLAG 768 256 0
FLAG 848 256 0
FLAG 576 368 0
FLAG 848 144 OUT1
FLAG -192 144 OUT2
SYMBOL VOLTAGE 16 -32 R0
WINDOW 123 0 0 Left 0
WINDOW 39 0 0 Left 0
SYMATTR InstName V1
SYMATTR Value 4.5
SYMBOL polcap -112 160 R0
SYMATTR InstName C1
SYMATTR Value 10µ
SYMBOL ind 208 160 M270
WINDOW 0 32 56 VTop 0
WINDOW 3 5 56 VBottom 0
SYMATTR InstName L1
SYMATTR Value 3.3µ
SYMBOL res 48 144 R0
SYMATTR InstName R1
SYMATTR Value 150K
SYMBOL res 48 256 R0
SYMATTR InstName R2
SYMATTR Value 47.5K
SYMBOL cap -32 160 R0
SYMATTR InstName C2
SYMATTR Value 10p
SYMBOL polcap 752 160 R0
SYMATTR InstName C3
SYMATTR Value 10µ
SYMBOL ind 464 160 R270
WINDOW 0 32 56 VTop 0
WINDOW 3 5 56 VBottom 0
SYMATTR InstName L2
SYMATTR Value 3.3µ
SYMBOL PowerProducts\\LTC3419 336 144 R0
SYMATTR InstName U1
SYMBOL res 560 144 R0
SYMATTR InstName R3
SYMATTR Value 59K
SYMBOL res 560 256 R0
SYMATTR InstName R4
SYMATTR Value 59K
SYMBOL cap 656 160 R0
SYMATTR InstName C4
SYMATTR Value 22p
SYMBOL res -208 144 R0
SYMATTR InstName R5
SYMATTR Value 4.2
SYMBOL res 832 144 R0
SYMATTR InstName R6
SYMATTR Value 2
TEXT 688 328 Left 0 !.tran 1.2m startup
TEXT -240 392 Left 0 ;Note:\n  If the simulation model is not found please update with the "Sync Release" command from the "Tools" menu.\n  It remains the customer's responsibility to verify proper and reliable operation in the actual application.\n  Component substitution and printed circuit board layout may significantly affect circuit performance or reliability\n  Contact your local sales representative for assistance. This circuit is distributed to customers only for use with LTC parts\n  Copyright © 2008 Linear Technology Inc. All rights reserved.
TEXT 344 -64 Bottom 0 ;LTC3419 - Dual Monolithic 600mA Synchronous Step-Down Regulator\nInput: 4.5 to 32V   Outputs: 1.2V@600mA and 2.5V@600mA
