Version 4
SHEET 1 1312 724
WIRE 0 32 -96 32
WIRE 80 32 0 32
WIRE 96 32 80 32
WIRE 448 32 384 32
WIRE 560 32 448 32
WIRE 672 32 640 32
WIRE 736 32 672 32
WIRE 832 32 736 32
WIRE -96 48 -96 32
WIRE 0 48 0 32
WIRE 736 48 736 32
WIRE 832 48 832 32
WIRE 80 128 80 32
WIRE 96 128 80 128
WIRE 672 128 672 32
WIRE 672 128 384 128
WIRE -96 144 -96 128
WIRE 0 144 0 112
WIRE 736 144 736 112
WIRE 832 144 832 128
WIRE 432 224 384 224
WIRE 400 320 384 320
WIRE 96 416 80 416
WIRE 432 416 432 224
WIRE 432 416 384 416
WIRE 240 496 240 480
FLAG -96 144 0
FLAG 832 144 0
FLAG -96 32 IN
FLAG 832 32 OUT
FLAG 0 144 0
FLAG 240 496 0
FLAG 400 320 0
FLAG 80 416 0
FLAG 736 144 0
FLAG 448 96 0
SYMBOL voltage -96 32 R0
SYMATTR InstName V1
SYMATTR Value 120
SYMBOL ind 544 48 R270
WINDOW 0 32 56 VTop 2
WINDOW 3 5 56 VBottom 2
SYMATTR InstName L1
SYMATTR Value 100µ
SYMATTR SpiceLine Ipk=0.8 Rser=0.1 Rpar=0 Cpar=0
SYMBOL res 816 32 R0
SYMATTR InstName Rload
SYMATTR Value 13.2
SYMBOL cap -16 48 R0
SYMATTR InstName C1
SYMATTR Value 1µ
SYMBOL cap 720 48 R0
SYMATTR InstName C2
SYMATTR Value 22µ
SYMATTR SpiceLine V=10 Irms=11.456 Rser=0.004 Lser=0 mfg="KEMET" pn="C0805C225K8PAC" type="X5R"
SYMBOL LTC3638 240 224 R0
SYMATTR InstName U1
SYMBOL diode 464 96 R180
WINDOW 0 -11 38 Right 2
WINDOW 3 -12 15 Right 2
SYMATTR InstName D1
SYMATTR Value MURS120
SYMATTR Description Schottky diode
SYMATTR Type schottky
TEXT 568 448 Left 2 !.tran 5m startup
TEXT 256 -48 Bottom 2 ;LTC3638 - High Efficiency, 140V, 250mA Step-Down Regulator\nAutomotive Buck Regulator\nInput: 4V to 140V     Output: 3.3V @ 250mA
TEXT -336 512 Left 2 ;Note:\n  If the simulation model is not found please update with the "Sync Release" command from the "Tools" menu.\n  It remains the customer's responsibility to verify proper and reliable operation in the actual application.\n  Component substitution and printed circuit board layout may significantly affect circuit performance or reliability\n  Contact your local sales representative for assistance. This circuit is distributed to customers only for use with LTC parts\n  Copyright © 2015 Linear Technology Inc. All rights reserved.
