Version 4
SHEET 1 2004 732
WIRE -32 32 -128 32
WIRE 64 32 -32 32
WIRE 160 32 64 32
WIRE 480 32 448 32
WIRE 608 32 560 32
WIRE 720 32 720 0
WIRE 720 32 608 32
WIRE -128 48 -128 32
WIRE -32 48 -32 32
WIRE 608 48 608 32
WIRE 720 48 720 32
WIRE 1184 48 992 48
WIRE 1216 48 1184 48
WIRE 1328 48 1296 48
WIRE 992 64 992 48
WIRE 1328 64 1328 48
WIRE 880 112 880 96
WIRE 64 128 64 112
WIRE 160 128 64 128
WIRE 480 128 448 128
WIRE 944 128 912 128
WIRE 1120 128 1120 112
WIRE -128 144 -128 128
WIRE -32 144 -32 112
WIRE 64 144 64 128
WIRE 480 144 480 128
WIRE 848 144 480 144
WIRE 1184 144 1184 48
WIRE 1184 144 1152 144
WIRE 992 160 992 144
WIRE 992 160 912 160
WIRE 1088 160 992 160
WIRE 1328 160 1328 144
WIRE 1184 176 1152 176
WIRE 880 192 880 176
WIRE 1120 208 1120 192
WIRE 160 224 64 224
WIRE 1328 272 1328 256
WIRE 64 320 64 224
WIRE 160 320 64 320
WIRE 1328 368 1328 352
WIRE 480 416 448 416
WIRE 64 512 64 320
WIRE 480 512 480 416
WIRE 480 512 64 512
WIRE 608 512 608 112
WIRE 608 512 480 512
WIRE 720 512 720 128
WIRE 720 512 608 512
WIRE 944 512 944 128
WIRE 944 512 720 512
FLAG -128 144 0
FLAG -128 32 IN
FLAG 720 0 0
FLAG 1184 176 0
FLAG 1328 160 0
FLAG 1328 368 0
FLAG 880 192 VSS
FLAG 720 512 OUT
FLAG 1120 112 0
FLAG 880 96 0
FLAG -32 144 0
FLAG 1120 208 VSS
FLAG 1328 256 VSS
FLAG 1328 48 CTRL
SYMBOL PowerProducts\\LTC3630 304 224 R0
SYMATTR InstName U1
SYMBOL voltage -128 32 R0
SYMATTR InstName V1
SYMATTR Value 24
SYMBOL ind 464 48 R270
WINDOW 0 32 56 VTop 2
WINDOW 3 5 56 VBottom 2
SYMATTR InstName L1
SYMATTR Value 22µ
SYMATTR SpiceLine Rser=50m
SYMBOL cap 592 48 R0
WINDOW 3 39 32 Left 2
WINDOW 123 25 60 Left 2
SYMATTR Value 22µ
SYMATTR Value2 x2
SYMATTR InstName C1
SYMATTR SpiceLine V=25 Irms=0 Rser=0.003 Lser=0 mfg="TDK" pn="C575OX5RIE226M" type="X5R"
SYMBOL res 704 32 R0
SYMATTR InstName Rload
SYMATTR Value 100
SYMBOL res 48 16 R0
SYMATTR InstName R1
SYMATTR Value 200K
SYMBOL res 48 128 R0
SYMATTR InstName R2
SYMATTR Value 15K
SYMBOL voltage 1328 48 R0
WINDOW 123 0 0 Left 2
WINDOW 39 0 0 Left 2
SYMATTR InstName V2
SYMATTR Value PULSE(0 5 5m 5m 15m 2m)
SYMBOL res 1312 32 R90
WINDOW 0 0 56 VBottom 2
WINDOW 3 32 56 VTop 2
SYMATTR InstName R5
SYMATTR Value 5k
SYMBOL res 976 48 R0
SYMATTR InstName R6
SYMATTR Value 20k
SYMBOL voltage 1328 256 R0
WINDOW 123 0 0 Left 2
WINDOW 39 0 0 Left 2
SYMATTR InstName V3
SYMATTR Value -25
SYMBOL Opamps\\LT6016 1120 160 M0
SYMATTR InstName U2
SYMBOL Opamps\\LT6016 880 144 M0
SYMATTR InstName U3
SYMBOL cap -48 48 R0
SYMATTR InstName C2
SYMATTR Value 10µ
SYMATTR SpiceLine V=35 Rser=5m
TEXT 1016 496 Left 2 !.tran 34m startup
TEXT 1352 184 Left 2 ;LTC2630-H DAC
TEXT -24 560 Left 2 ;Note:\n  If the simulation model is not found please update with the "Sync Release" command from the "Tools" menu.\n  It remains the customer's responsibility to verify proper and reliable operation in the actual application.\n  Component substitution and printed circuit board layout may significantly affect circuit performance or reliability\n  Contact your local sales representative for assistance. This circuit is distributed to customers only for use with LTC parts\n  Copyright © 2015 Linear Technology Inc. All rights reserved.
TEXT 648 -40 Bottom 2 ;LTC3630 - High Efficiency, 65V 500mA Synchronous Step-Down Converter\nLT6016 - Dual 3.2MHz, 0.8V/µs Low Power, Over-The-Top Precision Op Amp\nPositive to Negative Converter with Variable Output\nInput: 24V     Output: -1.3 to -20V @ 200mA (CTRL: 0V to 5V)
