Version 4
SHEET 1 2004 996
WIRE 736 -864 480 -864
WIRE 960 -864 800 -864
WIRE 960 -848 960 -864
WIRE 736 -832 736 -864
WIRE 800 -832 800 -864
WIRE 960 -768 960 -784
WIRE -96 -720 -176 -720
WIRE 96 -720 -96 -720
WIRE 736 -720 736 -752
WIRE 736 -720 96 -720
WIRE 800 -720 800 -752
WIRE 864 -720 800 -720
WIRE 1120 -720 944 -720
WIRE 1168 -720 1120 -720
WIRE 1280 -720 1168 -720
WIRE -176 -704 -176 -720
WIRE 1168 -704 1168 -720
WIRE 1280 -704 1280 -720
WIRE 736 -688 736 -720
WIRE 800 -688 800 -720
WIRE 480 -656 480 -864
WIRE 96 -624 96 -720
WIRE -176 -608 -176 -624
WIRE 1168 -608 1168 -640
WIRE 1280 -608 1280 -624
WIRE 736 -592 736 -608
WIRE -96 -576 -96 -720
WIRE -64 -576 -96 -576
WIRE 432 -576 240 -576
WIRE 800 -576 800 -608
WIRE 960 -576 800 -576
WIRE 960 -560 960 -576
WIRE -320 -512 -336 -512
WIRE -240 -512 -256 -512
WIRE -64 -512 -240 -512
WIRE 688 -512 240 -512
WIRE 960 -480 960 -496
WIRE 1120 -480 1120 -720
WIRE 1232 -480 1120 -480
WIRE -240 -448 -240 -512
WIRE -224 -448 -240 -448
WIRE -64 -448 -144 -448
WIRE 320 -448 240 -448
WIRE 368 -448 320 -448
WIRE 480 -448 480 -560
WIRE 480 -448 448 -448
WIRE 736 -448 736 -496
WIRE 736 -448 480 -448
WIRE 1120 -448 1120 -480
WIRE 320 -432 320 -448
WIRE 736 -432 736 -448
WIRE 480 -400 480 -448
WIRE -160 -384 -176 -384
WIRE -64 -384 -80 -384
WIRE 256 -384 240 -384
WIRE 320 -352 320 -368
WIRE 736 -336 736 -352
WIRE 1120 -336 1120 -368
WIRE 256 -320 240 -320
WIRE 1232 -320 1232 -480
WIRE 1344 -320 1232 -320
WIRE 1344 -288 1344 -320
WIRE -192 -256 -208 -256
WIRE -64 -256 -128 -256
WIRE 288 -256 240 -256
WIRE 320 -256 288 -256
WIRE 368 -256 320 -256
WIRE 480 -256 480 -320
WIRE 480 -256 448 -256
WIRE 320 -240 320 -256
WIRE 1120 -208 1120 -256
WIRE -144 -192 -160 -192
WIRE -64 -192 -80 -192
WIRE 256 -192 240 -192
WIRE 720 -192 672 -192
WIRE 848 -192 784 -192
WIRE 992 -192 928 -192
WIRE 1232 -192 1232 -320
WIRE 1344 -176 1344 -208
WIRE 320 -160 320 -176
WIRE 96 -144 96 -160
WIRE 672 -80 672 -192
WIRE 672 -80 528 -80
WIRE 704 -80 672 -80
WIRE 992 -80 992 -192
WIRE 992 -80 960 -80
WIRE 1232 -80 1232 -112
WIRE 1232 -80 992 -80
WIRE 1344 -80 1344 -112
WIRE 1344 -80 1232 -80
WIRE 1232 -48 1232 -80
WIRE -240 -32 -240 -448
WIRE 480 -32 480 -256
WIRE 480 -32 -240 -32
WIRE 288 48 288 -256
WIRE 304 48 288 48
WIRE 560 48 496 48
WIRE 672 48 640 48
WIRE 704 48 672 48
WIRE 976 48 960 48
WIRE 1232 48 1232 32
WIRE 304 112 288 112
WIRE 976 112 960 112
WIRE 528 144 528 -80
WIRE 528 144 496 144
WIRE 528 160 528 144
WIRE 672 176 672 48
WIRE 1120 176 1120 -128
WIRE 1120 176 672 176
WIRE 1120 192 1120 176
WIRE 528 256 528 240
WIRE 1120 272 1120 256
FLAG 736 -336 0
FLAG -160 -192 0
FLAG 96 -144 0
FLAG -176 -384 0
FLAG -208 -256 0
FLAG -176 -608 0
FLAG 1280 -608 0
FLAG 1168 -608 0
FLAG 320 -352 0
FLAG -176 -720 IN
FLAG 1280 -720 OUT
FLAG 960 -768 0
FLAG 960 -480 0
FLAG 1232 48 0
FLAG 288 112 0
FLAG 976 112 0
FLAG 976 48 0
FLAG 320 -160 0
FLAG -336 -512 0
FLAG 256 -192 0
FLAG 1120 272 0
FLAG 528 256 0
SYMBOL LTC3723-1 96 -400 R0
SYMATTR InstName U1
SYMBOL nmos 432 -656 R0
WINDOW 0 52 26 Left 2
WINDOW 3 56 73 Left 2
SYMATTR InstName Q1
SYMATTR Value BSC520N15NS3
SYMBOL nmos 688 -592 R0
WINDOW 3 57 67 Left 2
SYMATTR Value BSC520N15NS3
SYMATTR InstName Q2
SYMBOL res 720 -448 R0
SYMATTR InstName R1
SYMATTR Value 15m
SYMBOL res 464 -464 R90
WINDOW 0 0 56 VBottom 2
WINDOW 3 32 56 VTop 2
SYMATTR InstName R2
SYMATTR Value 2K
SYMBOL cap -80 -208 R90
WINDOW 3 32 32 VTop 2
WINDOW 0 0 32 VBottom 2
SYMATTR Value 220p
SYMATTR InstName C1
SYMBOL res -64 -400 R90
WINDOW 0 0 56 VBottom 2
WINDOW 3 32 56 VTop 2
SYMATTR InstName R3
SYMATTR Value 33K
SYMBOL cap -128 -272 R90
WINDOW 3 32 32 VTop 2
WINDOW 0 0 32 VBottom 2
SYMATTR Value .1µ
SYMATTR InstName C2
SYMBOL voltage -176 -720 R0
WINDOW 3 26 92 Left 2
SYMATTR Value 36
SYMATTR InstName V1
SYMBOL ind2 720 -848 R0
WINDOW 0 -4 39 Right 2
WINDOW 3 -4 74 Right 2
SYMATTR InstName L1
SYMATTR Value 60µ
SYMATTR Type ind
SYMATTR SpiceLine Rpar=1K
SYMBOL ind2 720 -704 R0
WINDOW 0 -2 36 Right 2
WINDOW 3 -2 76 Right 2
SYMATTR InstName L2
SYMATTR Value 60µ
SYMATTR Type ind
SYMATTR SpiceLine Rpar=1K
SYMBOL ind2 816 -704 M0
WINDOW 0 -3 38 Right 2
WINDOW 3 -2 75 Right 2
SYMATTR InstName L3
SYMATTR Value 167µ
SYMATTR Type ind
SYMATTR SpiceLine Rpar=1K
SYMBOL res 464 -272 R90
WINDOW 0 0 56 VBottom 2
WINDOW 3 32 56 VTop 2
SYMATTR InstName R4
SYMATTR Value 1.2K
SYMBOL cap 1152 -704 R0
WINDOW 3 39 33 Left 2
WINDOW 123 24 57 Left 2
SYMATTR Value 47µ
SYMATTR Value2 x3
SYMATTR InstName C3
SYMATTR SpiceLine Rser=30m
SYMBOL cap 304 -432 R0
SYMATTR InstName C4
SYMATTR Value 22p
SYMBOL diode 944 -496 M180
WINDOW 0 24 64 Left 2
WINDOW 3 24 0 Left 2
SYMATTR InstName D1
SYMATTR Value RFN10BM3S
SYMBOL diode 944 -784 M180
WINDOW 0 24 64 Left 2
WINDOW 3 24 0 Left 2
SYMATTR InstName D2
SYMATTR Value RFN10BM3S
SYMBOL res -128 -464 R90
WINDOW 0 0 56 VBottom 2
WINDOW 3 32 56 VTop 2
SYMATTR InstName R5
SYMATTR Value 10K
SYMBOL res 464 -416 R0
SYMATTR InstName R6
SYMATTR Value 270K
SYMBOL res 1216 -208 R0
SYMATTR InstName R7
SYMATTR Value 47.5K
SYMBOL res 1216 -64 R0
SYMATTR InstName R8
SYMATTR Value 2.49K
SYMBOL cap 784 -208 R90
WINDOW 0 0 32 VBottom 2
WINDOW 3 32 32 VTop 2
SYMATTR InstName C5
SYMATTR Value .1µ
SYMBOL res 656 32 R90
WINDOW 0 0 56 VBottom 2
WINDOW 3 32 56 VTop 2
SYMATTR InstName R9
SYMATTR Value 1K
SYMBOL optos\\MOC207 400 112 M0
SYMATTR InstName U2
SYMBOL LT1431 832 16 R0
SYMATTR InstName U3
SYMBOL cap 1328 -112 M180
WINDOW 0 24 56 Left 2
WINDOW 3 24 8 Left 2
SYMATTR InstName C6
SYMATTR Value 22n
SYMATTR SpiceLine V=100
SYMBOL res 1328 -304 R0
SYMATTR InstName R10
SYMATTR Value 10K
SYMBOL res 512 144 R0
SYMATTR InstName R11
SYMATTR Value 100K
SYMBOL zener 1104 256 M180
WINDOW 0 24 64 Left 2
WINDOW 3 24 0 Left 2
SYMATTR InstName D3
SYMATTR Value BZX84C8V2L
SYMATTR Description Diode
SYMATTR Type diode
SYMBOL res 1104 -464 R0
SYMATTR InstName R12
SYMATTR Value 1.3K
SYMBOL res 1104 -352 R0
SYMATTR InstName R13
SYMATTR Value 1.3K
SYMBOL res 1104 -224 R0
SYMATTR InstName R14
SYMATTR Value 1.3K
SYMBOL cap 304 -240 R0
SYMATTR InstName C7
SYMATTR Value 1500p
SYMBOL cap -256 -496 M270
WINDOW 0 32 32 VTop 2
WINDOW 3 0 32 VBottom 2
SYMATTR InstName C8
SYMATTR Value 1µ
SYMBOL res 944 -208 R90
WINDOW 0 0 56 VBottom 2
WINDOW 3 32 56 VTop 2
SYMATTR InstName R15
SYMATTR Value 2K
SYMBOL res 1264 -720 R0
SYMATTR InstName Rload
SYMATTR Value 20
SYMBOL ind2 816 -848 M0
WINDOW 0 -3 38 Right 2
WINDOW 3 -2 75 Right 2
SYMATTR InstName L4
SYMATTR Value 167µ
SYMATTR Type ind
SYMATTR SpiceLine Rpar=1K
SYMBOL ind2 848 -704 R270
WINDOW 0 32 56 VTop 2
WINDOW 3 4 56 VBottom 2
SYMATTR InstName L5
SYMATTR Value 33µ
SYMATTR Type ind
TEXT 768 -872 Bottom 2 !K1 L1 L2 L3 L4 1
TEXT 1216 136 Left 2 !.tran 20m startup
TEXT 536 -912 Bottom 2 ;LTC3723-1 - Synchronous Push-Pull PWM Controllers\nLT1431 - Programmable Reference\n130W High Efficiency Isolated Non-Synchronous Push-Pull Converter for PoE Applications\nInput: 34V to 38V     Output: 50V @ 2.6A, 20mA Min Load
TEXT -48 280 Left 2 ;Notes:\n  Smaller values are used for TK/SS capacitors to reduce simulation time. See datasheet for typical values.\n  If the simulation model is not found please update with the "Sync Release" command from the "Tools" menu.\n  It remains the customer's responsibility to verify proper and reliable operation in the actual application.\n  Component substitution and printed circuit board layout may significantly affect circuit performance or reliability.\n  Contact your local sales representative for assistance. This circuit is distributed to customers only for use with LTC parts.\n  Copyright © 2016 Linear Technology Inc.  All rights reserved.
LINE Normal 768 -592 768 -848 2
LINE Normal 773 -592 773 -848 2
