Version 4
SHEET 1 1312 1684
WIRE -1136 784 -1136 768
WIRE -1136 896 -1136 864
WIRE -1072 432 -1072 416
WIRE -1072 544 -1072 512
WIRE -1024 768 -1136 768
WIRE -1024 800 -1024 768
WIRE -1024 896 -1024 864
WIRE -976 416 -1072 416
WIRE -976 448 -976 416
WIRE -976 544 -976 512
WIRE -944 768 -1024 768
WIRE -944 1200 -944 768
WIRE -896 416 -976 416
WIRE -896 448 -896 416
WIRE -896 544 -896 512
WIRE -896 768 -944 768
WIRE -896 912 -896 768
WIRE -896 1008 -896 992
WIRE -896 1024 -896 1008
WIRE -896 1120 -896 1104
WIRE -864 768 -896 768
WIRE -816 416 -896 416
WIRE -816 448 -816 416
WIRE -816 544 -816 512
WIRE -752 416 -816 416
WIRE -752 608 -752 416
WIRE -752 640 -752 608
WIRE -752 768 -784 768
WIRE -752 768 -752 736
WIRE -752 800 -752 768
WIRE -752 944 -752 896
WIRE -752 960 -752 944
WIRE -720 1088 -720 1072
WIRE -672 768 -752 768
WIRE -672 816 -672 768
WIRE -640 1072 -720 1072
WIRE -592 656 -704 656
WIRE -592 752 -592 656
WIRE -560 608 -752 608
WIRE -560 688 -560 608
WIRE -544 1072 -576 1072
WIRE -544 1088 -544 1072
WIRE -544 1168 -544 1152
WIRE -528 560 -528 544
WIRE -528 640 -528 624
WIRE -464 544 -528 544
WIRE -464 624 -464 544
WIRE -432 624 -464 624
WIRE -432 688 -560 688
WIRE -432 752 -592 752
WIRE -432 816 -672 816
WIRE -432 880 -704 880
WIRE -432 944 -752 944
WIRE -432 1008 -896 1008
WIRE -432 1072 -544 1072
WIRE -432 1136 -464 1136
WIRE -432 1200 -944 1200
WIRE -336 416 -752 416
WIRE -336 432 -336 416
WIRE -336 544 -464 544
WIRE -336 544 -336 512
WIRE -336 576 -336 544
WIRE -272 1264 -272 1248
WIRE -208 416 -336 416
WIRE -208 432 -208 416
WIRE -208 576 -208 512
WIRE -80 544 -336 544
WIRE -80 624 -112 624
WIRE -80 624 -80 544
WIRE -64 688 -112 688
WIRE -64 688 -64 640
WIRE -48 752 -112 752
WIRE -48 752 -48 688
WIRE -48 1072 -112 1072
WIRE -48 1152 -48 1136
WIRE -32 816 -112 816
WIRE -32 816 -32 784
WIRE -16 688 -48 688
WIRE -16 880 -112 880
WIRE 32 416 -208 416
WIRE 32 640 -64 640
WIRE 32 640 32 416
WIRE 32 672 32 640
WIRE 32 784 -32 784
WIRE 32 784 32 768
WIRE 32 800 32 784
WIRE 32 944 -112 944
WIRE 32 944 32 896
WIRE 32 960 32 944
WIRE 32 1072 -48 1072
WIRE 144 1072 96 1072
WIRE 208 640 32 640
WIRE 208 656 208 640
WIRE 208 784 32 784
WIRE 208 784 208 720
WIRE 208 848 208 784
WIRE 208 960 208 912
WIRE 240 784 208 784
WIRE 352 784 320 784
WIRE 352 1008 -112 1008
WIRE 352 1008 352 784
WIRE 400 784 352 784
WIRE 400 816 400 784
WIRE 400 912 400 880
WIRE 496 784 400 784
WIRE 496 816 496 784
WIRE 496 912 496 896
FLAG -528 640 0
FLAG -752 960 0
FLAG -544 1168 0
FLAG -720 1168 0
FLAG -1024 896 0
FLAG -896 1120 0
FLAG -1136 768 OUT1
FLAG -1072 544 0
FLAG 32 960 0
FLAG -48 1152 0
FLAG 144 1152 0
FLAG 400 912 0
FLAG 496 784 OUT2
FLAG -1136 896 0
FLAG -464 1136 0
FLAG -272 1264 0
FLAG -976 544 0
FLAG -896 544 0
FLAG -816 544 0
FLAG 208 960 0
FLAG 496 912 0
FLAG -1072 416 IN
SYMBOL nmos -704 800 M0
WINDOW 0 40 -2 Right 0
WINDOW 3 40 103 Right 0
SYMATTR InstName Q1b
SYMATTR Value Si7540DP_N
SYMBOL cap -544 560 R0
SYMATTR InstName C1
SYMATTR Value 1µ
SYMBOL ind -768 784 M270
WINDOW 0 32 56 VTop 0
WINDOW 3 5 56 VBottom 0
SYMATTR InstName L1
SYMATTR Value 1.5µ
SYMATTR SpiceLine Rser=0.014
SYMBOL res -912 1008 R0
SYMATTR InstName R1
SYMATTR Value 59K
SYMATTR SpiceLine tol=1
SYMBOL res -912 1008 M180
WINDOW 0 36 76 Left 0
WINDOW 3 36 40 Left 0
SYMATTR InstName R2
SYMATTR Value 187K
SYMATTR SpiceLine tol=1
SYMBOL cap -576 1056 R90
WINDOW 0 0 32 VBottom 0
WINDOW 3 32 32 VTop 0
SYMATTR InstName C2
SYMATTR Value 1000p
SYMBOL cap -560 1088 R0
SYMATTR InstName C3
SYMATTR Value 22p
SYMBOL res -736 1072 R0
SYMATTR InstName R3
SYMATTR Value 27K
SYMBOL VOLTAGE -1072 416 R0
WINDOW 123 0 0 Left 0
WINDOW 39 0 0 Left 0
SYMATTR InstName V1
SYMATTR Value 3.3
SYMBOL nmos -16 800 R0
WINDOW 0 55 32 Left 0
WINDOW 3 55 62 Left 0
SYMATTR InstName Q2b
SYMATTR Value Si7540DP_N
SYMBOL cap 96 1056 R90
WINDOW 0 0 32 VBottom 0
WINDOW 3 32 32 VTop 0
SYMATTR InstName C4
SYMATTR Value 220p
SYMBOL cap -64 1072 R0
WINDOW 0 38 21 Left 0
SYMATTR InstName C5
SYMATTR Value 22p
SYMBOL res 128 1056 R0
SYMATTR InstName R4
SYMATTR Value 33K
SYMBOL ind 224 800 R270
WINDOW 0 32 56 VTop 0
WINDOW 3 5 56 VBottom 0
SYMATTR InstName L2
SYMATTR Value 1.5µ
SYMATTR SpiceLine Rser=0.014
SYMBOL pmos -16 768 M180
WINDOW 3 57 29 Left 0
WINDOW 0 58 67 Left 0
SYMATTR Value Si7540DP_P
SYMATTR InstName Q2a
SYMBOL res -352 416 R0
SYMATTR InstName R5
SYMATTR Value 10
SYMBOL res -224 416 R0
SYMATTR InstName R6
SYMATTR Value 100K
SYMBOL pmos -704 736 R180
WINDOW 3 44 -8 Right 0
WINDOW 0 42 100 Right 0
SYMATTR Value Si7540DP_P
SYMATTR InstName Q1a
SYMBOL cap -992 448 R0
SYMATTR InstName C6
SYMATTR Value 10µ
SYMBOL cap -912 448 R0
SYMATTR InstName C7
SYMATTR Value 10µ
SYMBOL res 480 800 R0
SYMATTR InstName Rload2
SYMATTR Value .41
SYMBOL res -1152 768 R0
SYMATTR InstName Rload1
SYMATTR Value .83
SYMBOL PowerProducts\\LTC3776 -272 912 R0
SYMATTR InstName U1
SYMBOL cap -832 448 R0
SYMATTR InstName C8
SYMATTR Value 22µ
SYMBOL schottky 192 720 M180
WINDOW 0 24 72 Left 0
WINDOW 3 24 0 Left 0
SYMATTR InstName D1
SYMATTR Value MBRS130L
SYMBOL schottky 192 912 M180
WINDOW 0 24 72 Left 0
WINDOW 3 24 0 Left 0
SYMATTR InstName D2
SYMATTR Value MBRS130L
SYMBOL polcap 384 816 R0
SYMATTR InstName C9
SYMATTR Value 150µ
SYMATTR SpiceLine Rser=20m
SYMBOL polcap -1040 800 R0
SYMATTR InstName C10
SYMATTR Value 150µ
SYMATTR SpiceLine Rser=20m
TEXT 272 1168 Left 0 !.tran 2m startup
TEXT -240 368 Center 0 ;LTC3776 - 2-Phase, 550KHz, Dual Output Synchronous DC/DC Converter For DDR/QDR Memory Termination \nInput: 3.3V   Outputs: 2.5V@3A and 1.25V@3A
TEXT -960 1272 Left 0 ;Note:\n  If the simulation model is not found please update with the "Sync Release" command from the "Tools" menu.\n  It remains the customer's responsibility to verify proper and reliable operation in the actual application.\n  Component substitution and printed circuit board layout may significantly affect circuit performance or reliability\n  Contact your local sales representative for assistance. This circuit is distributed to customers only for use with LTC parts\n  Copyright © 2006 Linear Technology Inc. All rights reserved.
