Version 4
SHEET 1 5868 2084
WIRE 1280 1296 1152 1296
WIRE 1648 1296 1280 1296
WIRE 1776 1296 1648 1296
WIRE 1152 1312 1152 1296
WIRE 1280 1312 1280 1296
WIRE 1648 1312 1648 1296
WIRE 1776 1312 1776 1296
WIRE 1408 1376 1392 1376
WIRE 1488 1376 1472 1376
WIRE 1584 1376 1568 1376
WIRE 1856 1376 1840 1376
WIRE 1968 1376 1936 1376
WIRE 2080 1376 1968 1376
WIRE 2176 1376 2080 1376
WIRE 2304 1376 2176 1376
WIRE 1968 1392 1968 1376
WIRE 2304 1392 2304 1376
WIRE 1152 1408 1152 1392
WIRE 1280 1408 1280 1376
WIRE 2080 1408 2080 1376
WIRE 2176 1408 2176 1376
WIRE 1472 1488 1456 1488
WIRE 1584 1488 1552 1488
WIRE 1968 1488 1968 1472
WIRE 1968 1488 1840 1488
WIRE 2080 1488 2080 1472
WIRE 2080 1488 1968 1488
WIRE 1968 1504 1968 1488
WIRE 2176 1504 2176 1472
WIRE 2304 1504 2304 1472
WIRE 1648 1584 1648 1568
WIRE 1776 1584 1776 1568
WIRE 1968 1600 1968 1584
FLAG 1776 1584 0
FLAG 1648 1584 0
FLAG 1152 1408 0
FLAG 1456 1488 0
FLAG 2304 1504 0
FLAG 1968 1600 0
FLAG 2176 1504 0
FLAG 1392 1376 0
FLAG 2304 1376 OUT
FLAG 1280 1408 0
FLAG 1152 1296 IN
SYMBOL ind 1840 1392 R270
WINDOW 0 32 56 VTop 0
WINDOW 3 5 56 VBottom 0
SYMATTR InstName L1
SYMATTR Value 2.2µ
SYMATTR SpiceLine Ipk=2.3 Rser=0.06 Rpar=55000 Cpar=1.8p mfg="Coilcraft" pn="DO1608P-222"
SYMBOL RES 1952 1376 R0
SYMATTR InstName R1
SYMATTR Value 249K
SYMBOL VOLTAGE 1152 1296 R0
WINDOW 123 0 0 Left 0
WINDOW 39 24 132 Left 0
SYMATTR InstName V1
SYMATTR Value 3.3
SYMBOL res 1952 1488 R0
SYMATTR InstName R2
SYMATTR Value 200K
SYMBOL res 1568 1472 R90
WINDOW 0 0 56 VBottom 0
WINDOW 3 32 56 VTop 0
SYMATTR InstName R3
SYMATTR Value 324K
SYMBOL res 1584 1360 R90
WINDOW 0 0 56 VBottom 0
WINDOW 3 32 56 VTop 0
SYMATTR InstName R4
SYMATTR Value 16.2K
SYMBOL cap 1472 1360 R90
WINDOW 0 0 32 VBottom 0
WINDOW 3 32 32 VTop 0
SYMATTR InstName C1
SYMATTR Value 1000p
SYMBOL cap 2064 1408 R0
SYMATTR InstName C2
SYMATTR Value 10p
SYMBOL cap 1264 1312 R0
SYMATTR SpiceLine V=6.3 Irms=0 Rser=0.0008 MTBF=0 Lser=0 mfg="TDK" pn="C3225X5R0J226M" type="X5R" ppPkg=1
SYMATTR SpiceLine2 x1
SYMATTR InstName C3
SYMATTR Value 10µ
SYMBOL cap 2160 1408 R0
SYMATTR SpiceLine V=6.3 Irms=0 Rser=0.0008 MTBF=0 Lser=0 mfg="TDK" pn="C3225X5R0J226M" type="X5R" ppPkg=1
SYMATTR SpiceLine2 x1
SYMATTR InstName C4
SYMATTR Value 22µ
SYMBOL PowerProducts\\LTC3561A 1712 1424 R0
SYMATTR InstName U1
SYMBOL res 2288 1376 R0
SYMATTR InstName Rload
SYMATTR Value 1.8
TEXT 2128 1568 Left 0 !.tran 2m startup
TEXT 1728 1288 Bottom 0 ;LTC3561A - 1A, 4MHz, Synchronous Step-Down DC/DC Converter\nInput: 3.3V     Output: 1.8V @ 1A
TEXT 1080 1616 Left 0 ;Note:\n  If the simulation model is not found please update with the "Sync Release" command from the "Tools" menu.\n  It remains the customer's responsibility to verify proper and reliable operation in the actual application.\n  Component substitution and printed circuit board layout may significantly affect circuit performance or reliability\n  Contact your local sales representative for assistance. This circuit is distributed to customers only for use with LTC parts\n  Copyright © 2010 Linear Technology Inc. All rights reserved.
