Version 4
SHEET 1 1232 680
WIRE -320 -560 -432 -560
WIRE -240 -560 -320 -560
WIRE 160 -560 -240 -560
WIRE 224 -560 160 -560
WIRE 512 -560 480 -560
WIRE 608 -560 512 -560
WIRE 704 -560 608 -560
WIRE 784 -560 704 -560
WIRE -320 -544 -320 -560
WIRE 512 -544 512 -560
WIRE 608 -544 608 -560
WIRE 704 -544 704 -560
WIRE 784 -544 784 -560
WIRE -432 -528 -432 -560
WIRE 512 -464 512 -480
WIRE 512 -464 480 -464
WIRE -320 -448 -320 -480
WIRE 608 -448 608 -464
WIRE 608 -448 560 -448
WIRE 704 -448 704 -480
WIRE 784 -448 784 -464
WIRE -432 -432 -432 -448
WIRE 608 -432 608 -448
WIRE 160 -368 160 -560
WIRE 224 -368 160 -368
WIRE 560 -368 560 -448
WIRE 560 -368 480 -368
WIRE 608 -336 608 -352
WIRE -96 -288 -112 -288
WIRE -16 -288 -32 -288
WIRE 160 -272 160 -304
WIRE 496 -272 480 -272
WIRE -112 -240 -112 -288
WIRE -16 -240 -16 -288
WIRE 608 -192 608 -208
WIRE -240 -176 -240 -560
WIRE -208 -176 -240 -176
WIRE 160 -176 80 -176
WIRE 160 -176 160 -208
WIRE 224 -176 160 -176
WIRE 560 -176 480 -176
WIRE 560 -96 560 -176
WIRE 608 -96 608 -112
WIRE 608 -96 560 -96
WIRE -240 -80 -240 -176
WIRE -208 -80 -240 -80
WIRE 96 -80 80 -80
WIRE 512 -80 480 -80
WIRE 608 -80 608 -96
WIRE 784 -80 784 -96
WIRE 512 -64 512 -80
WIRE 704 -64 704 -96
WIRE -208 16 -224 16
WIRE 96 16 80 16
WIRE 160 16 160 -176
WIRE 224 16 160 16
WIRE 512 16 512 0
WIRE 512 16 480 16
WIRE 608 16 608 0
WIRE 608 16 512 16
WIRE 704 16 704 0
WIRE 704 16 608 16
WIRE 784 16 784 0
WIRE 784 16 704 16
FLAG -432 -432 0
FLAG 160 -304 0
FLAG -432 -560 IN+
FLAG 96 16 0
FLAG -224 16 0
FLAG 496 -272 0
FLAG 704 -448 0
FLAG 608 -336 0
FLAG 704 -96 0
FLAG 608 -208 0
FLAG 784 -448 0
FLAG 784 -96 0
FLAG 160 16 IN-
FLAG 784 -560 OUT+
FLAG 784 16 OUT-
FLAG -320 -448 0
FLAG 96 -80 0
SYMBOL voltage -432 -544 R0
WINDOW 123 0 0 Left 2
WINDOW 39 0 0 Left 2
SYMATTR InstName V1
SYMATTR Value 12
SYMBOL cap 144 -208 M180
WINDOW 0 24 56 Left 2
WINDOW 3 24 8 Left 2
SYMATTR InstName C5
SYMATTR Value 10µ
SYMATTR SpiceLine Rser=5m
SYMBOL PowerProducts\\LTC3261 -64 -80 R0
SYMATTR InstName U1
SYMBOL cap -32 -304 R90
WINDOW 0 0 32 VBottom 2
WINDOW 3 32 32 VTop 2
SYMATTR InstName C7
SYMATTR Value 1µ
SYMATTR SpiceLine Rser=10m
SYMBOL PowerProducts\\LT3032 352 -272 R0
SYMATTR InstName U2
SYMBOL cap 688 -544 R0
SYMATTR InstName C1
SYMATTR Value 10µ
SYMATTR SpiceLine Rser=5m
SYMBOL res 592 -560 R0
SYMATTR InstName R1
SYMATTR Value 51K
SYMBOL res 592 -448 R0
SYMATTR InstName R2
SYMATTR Value 30K
SYMBOL cap 688 0 M180
WINDOW 0 24 56 Left 2
WINDOW 3 24 8 Left 2
SYMATTR InstName C2
SYMATTR Value 10µ
SYMATTR SpiceLine Rser=5m
SYMBOL res 592 16 M180
WINDOW 0 36 76 Left 2
WINDOW 3 36 40 Left 2
SYMATTR InstName R3
SYMATTR Value 51K
SYMBOL res 592 -96 M180
WINDOW 0 36 76 Left 2
WINDOW 3 36 40 Left 2
SYMATTR InstName R4
SYMATTR Value 30K
SYMBOL res 768 -560 R0
SYMATTR InstName Rload+
SYMATTR Value 165
SYMBOL res 768 16 M180
WINDOW 0 36 76 Left 2
WINDOW 3 36 40 Left 2
SYMATTR InstName Rload-
SYMATTR Value 165
SYMBOL cap 496 -544 R0
SYMATTR InstName C3
SYMATTR Value .01µ
SYMBOL cap 496 0 M180
WINDOW 0 24 56 Left 2
WINDOW 3 24 8 Left 2
SYMATTR InstName C4
SYMATTR Value .01µ
SYMBOL cap -336 -544 R0
SYMATTR InstName C6
SYMATTR Value 10µ
SYMATTR SpiceLine Rser=5m
TEXT 848 -272 Right 2 !.tran 30m startup
TEXT 224 -608 Bottom 2 ;LTC3261 - High Voltage, Low Quiescent Current Inverting Charge Pump\nLT3032 - Dual 150mA Positive/Negative Low Noise Low Dropout Linear Regulator\nDual Polarity Low Noise Power Supply from a Single Input Supply\nInput: 4.5V to 20V     Outputs: ±3.3V @ 20mA
TEXT -504 56 Left 2 ;Notes:\n  If the simulation model is not found please update with the "Sync Release" command from the "Tools" menu.\n  It remains the customer's responsibility to verify proper and reliable operation in the actual application.\n  Component substitution and printed circuit board layout may significantly affect circuit performance or reliability.\n  Contact your local sales representative for assistance. This circuit is distributed to customers only for use with LTC parts.\n  Copyright © 2014 Linear Technology Inc. All rights reserved.
