Version 4
SHEET 1 1464 692
WIRE 192 -192 64 -192
WIRE 224 -192 192 -192
WIRE 320 -192 304 -192
WIRE 432 -192 320 -192
WIRE 64 -160 64 -192
WIRE 432 -160 432 -192
WIRE 192 -144 192 -192
WIRE 320 -144 320 -192
WIRE 64 -80 64 -96
WIRE 112 -80 64 -80
WIRE 432 -80 432 -96
WIRE 432 -80 400 -80
WIRE -112 16 -224 16
WIRE -16 16 -112 16
WIRE 80 16 -16 16
WIRE 112 16 80 16
WIRE 608 16 400 16
WIRE 720 16 608 16
WIRE 832 16 720 16
WIRE 944 16 832 16
WIRE 720 32 720 16
WIRE 944 32 944 16
WIRE -224 48 -224 16
WIRE -112 48 -112 16
WIRE 832 48 832 16
WIRE -16 112 -16 16
WIRE 80 112 80 16
WIRE 112 112 80 112
WIRE 432 112 400 112
WIRE 608 112 608 16
WIRE 720 112 720 96
WIRE 432 128 432 112
WIRE -224 144 -224 128
WIRE -112 144 -112 112
WIRE 832 144 832 112
WIRE 944 144 944 112
WIRE -16 208 -16 192
WIRE 112 208 -16 208
WIRE 432 208 432 192
WIRE 432 208 400 208
WIRE 608 208 608 192
WIRE 608 208 432 208
WIRE 720 208 720 192
WIRE 720 208 608 208
WIRE -16 224 -16 208
WIRE 608 224 608 208
WIRE 112 304 80 304
WIRE 432 304 400 304
WIRE -16 320 -16 304
WIRE 608 320 608 304
WIRE -32 400 -64 400
WIRE 112 400 48 400
WIRE 432 400 432 304
WIRE 432 400 400 400
WIRE 480 400 432 400
WIRE 576 400 544 400
WIRE 192 480 192 464
WIRE 320 480 320 464
WIRE 80 512 80 304
WIRE 432 512 432 400
WIRE 432 512 80 512
FLAG 192 480 0
FLAG 320 480 0
FLAG -64 400 0
FLAG 576 400 0
FLAG -224 144 0
FLAG -224 16 IN
FLAG 608 320 0
FLAG 832 144 0
FLAG 944 144 0
FLAG 944 16 OUT
FLAG -16 320 0
FLAG -112 144 0
SYMBOL res 64 384 R90
WINDOW 0 0 56 VBottom 2
WINDOW 3 32 56 VTop 2
SYMATTR InstName R1
SYMATTR Value 35.7K
SYMBOL cap 480 416 R270
WINDOW 0 32 32 VTop 2
WINDOW 3 0 32 VBottom 2
SYMATTR InstName C1
SYMATTR Value 4.7µ
SYMBOL voltage -224 32 R0
WINDOW 123 0 0 Left 2
WINDOW 39 0 0 Left 2
SYMATTR InstName V1
SYMATTR Value 24
SYMBOL ind 208 -176 R270
WINDOW 0 32 56 VTop 2
WINDOW 3 5 56 VBottom 2
SYMATTR InstName L1
SYMATTR Value 4.7µ
SYMATTR SpiceLine Rser=5m
SYMBOL cap 48 -160 R0
SYMATTR InstName C2
SYMATTR Value .1µ
SYMBOL cap 416 -160 R0
SYMATTR InstName C3
SYMATTR Value .1µ
SYMBOL res 592 96 R0
SYMATTR InstName R2
SYMATTR Value 1Meg
SYMBOL res 592 208 R0
SYMATTR InstName R3
SYMATTR Value 90.9K
SYMBOL cap 416 128 R0
WINDOW 3 41 34 Left 2
WINDOW 39 21 60 Left 2
SYMATTR Value 820p
SYMATTR SpiceLine Rser=40.2K
SYMATTR InstName C4
SYMBOL cap 704 32 R0
WINDOW 39 24 77 Left 2
SYMATTR InstName C5
SYMATTR Value 33p
SYMBOL cap 816 48 R0
SYMATTR InstName C6
SYMATTR Value 47µ
SYMATTR SpiceLine V=10 Irms=10.206 Rser=0.005 Lser=0 mfg="KEMET" pn="C1210C226K8PAC" type="X5R"
SYMBOL PowerProducts\\LTC3115-1 256 160 R0
SYMATTR InstName U1
SYMBOL res -32 96 R0
SYMATTR InstName R4
SYMATTR Value 2Meg
SYMBOL res -32 208 R0
SYMATTR InstName R5
SYMATTR Value 255K
SYMBOL cap -128 48 R0
SYMATTR InstName C7
SYMATTR Value 10µ
SYMBOL res 704 96 R0
SYMATTR InstName R6
SYMATTR Value 10K
SYMBOL res 928 16 R0
SYMATTR InstName Rload
SYMATTR Value 8.6
TEXT 728 304 Left 2 !.tran 9m startup
TEXT 360 -232 Bottom 2 ;LTC3115-1 - 40V, 2A Synchronous Buck-Boost DC/DC Converter\nIndustrial 12V 1MHz Regulator with Undervoltage Lockout Thresholds\nInput: 10V - 40V     Output: 12V @ 1.4A, UVLO Enabled/Disabled at 10.6V/8.7V
TEXT -304 504 Left 2 ;Notes: \n  If the simulation model is not found please update with the "Sync Release" command from the "Tools" menu.\n  It remains the customer's responsibility to verify proper and reliable operation in the actual application.\n  Component substitution and printed circuit board layout may significantly affect circuit performance or reliability.\n  Contact your local sales representative for assistance. This circuit is distributed to customers only for use with LTC parts.\n  Copyright © 2012 Linear Technology Inc.  All rights reserved.
