Version 4
SHEET 1 1920 2020
WIRE -576 576 -704 576
WIRE -320 576 -576 576
WIRE 320 576 -320 576
WIRE 384 576 320 576
WIRE -704 608 -704 576
WIRE -576 608 -576 576
WIRE -320 608 -320 576
WIRE 128 608 64 608
WIRE 192 608 128 608
WIRE 384 608 384 576
WIRE 128 624 128 608
WIRE 192 624 192 608
WIRE 64 672 64 608
WIRE 64 672 32 672
WIRE 64 688 64 672
WIRE 320 688 320 576
WIRE 384 688 384 672
WIRE -704 704 -704 688
WIRE -576 704 -576 672
WIRE 128 704 128 688
WIRE 192 704 192 688
WIRE -480 768 -512 768
WIRE 272 768 32 768
WIRE -480 864 -512 864
WIRE 64 864 64 752
WIRE 64 864 32 864
WIRE 176 864 64 864
WIRE 320 864 320 784
WIRE 320 864 240 864
WIRE 320 960 320 864
WIRE 320 960 32 960
WIRE 464 960 320 960
WIRE 544 960 464 960
WIRE 688 960 624 960
WIRE 320 976 320 960
WIRE 464 992 464 960
WIRE 272 1056 32 1056
WIRE 464 1072 464 1056
WIRE 464 1072 320 1072
WIRE 320 1088 320 1072
WIRE 144 1152 32 1152
WIRE 368 1152 144 1152
WIRE 688 1152 688 960
WIRE 688 1152 448 1152
WIRE 144 1168 144 1152
WIRE -592 1248 -624 1248
WIRE -480 1248 -528 1248
WIRE 144 1248 144 1232
WIRE 144 1248 32 1248
WIRE 256 1248 144 1248
WIRE 688 1248 688 1232
WIRE 688 1248 336 1248
WIRE -640 1344 -688 1344
WIRE -544 1344 -560 1344
WIRE -480 1344 -544 1344
WIRE 416 1344 32 1344
WIRE 544 1344 416 1344
WIRE 688 1344 688 1248
WIRE 688 1344 624 1344
WIRE 816 1344 688 1344
WIRE 928 1344 816 1344
WIRE 416 1360 416 1344
WIRE 816 1360 816 1344
WIRE 928 1360 928 1344
WIRE -688 1376 -688 1344
WIRE -544 1376 -544 1344
WIRE 688 1376 688 1344
WIRE -320 1424 -320 1408
WIRE -128 1424 -128 1408
WIRE 416 1456 416 1440
WIRE -688 1472 -688 1440
WIRE -544 1472 -544 1440
WIRE 688 1472 688 1440
WIRE 816 1472 816 1424
WIRE 928 1472 928 1440
FLAG -704 704 0
FLAG 320 1088 0
FLAG -544 1472 0
FLAG 688 1472 0
FLAG 416 1456 0
FLAG 928 1344 OUT
FLAG 928 1472 0
FLAG 192 704 0
FLAG -576 704 0
FLAG -704 576 IN
FLAG 384 688 0
FLAG 816 1472 0
FLAG -688 1472 0
FLAG 128 704 0
FLAG -512 864 0
FLAG -624 1248 0
FLAG -320 1424 0
FLAG -128 1424 0
FLAG -512 768 0
SYMBOL VOLTAGE -704 592 R0
WINDOW 123 0 0 Left 0
WINDOW 39 0 0 Left 0
SYMATTR Value 12
SYMATTR InstName V1
SYMBOL cap 176 848 M90
WINDOW 0 0 32 VBottom 0
WINDOW 3 32 32 VTop 0
SYMATTR InstName C1
SYMATTR Value .1u
SYMBOL res 672 1136 R0
SYMATTR InstName R1
SYMATTR Value 0.012
SYMBOL cap 128 1168 R0
SYMATTR InstName C2
SYMATTR Value 1000p
SYMBOL res 400 1344 R0
SYMATTR InstName R2
SYMATTR Value 68.1K
SYMBOL res 640 1360 M270
WINDOW 0 32 56 VTop 0
WINDOW 3 0 56 VBottom 0
SYMATTR InstName R3
SYMATTR Value 215K
SYMBOL cap -560 1376 R0
SYMATTR InstName C3
SYMATTR Value 100p
SYMBOL res -544 1328 R90
WINDOW 0 0 56 VBottom 0
WINDOW 3 32 56 VTop 0
SYMATTR InstName R4
SYMATTR Value 10k
SYMBOL schottky 48 688 R0
WINDOW 3 35 63 Left 0
SYMATTR Value PMEG4005AEA
SYMATTR InstName D1
SYMBOL cap -704 1376 R0
SYMATTR InstName C4
SYMATTR Value 1000p
SYMBOL res 464 1136 R90
WINDOW 0 0 56 VBottom 0
WINDOW 3 32 56 VTop 0
SYMATTR InstName R5
SYMATTR Value 10
SYMBOL res 352 1232 R90
WINDOW 0 0 56 VBottom 0
WINDOW 3 32 56 VTop 0
SYMATTR InstName R6
SYMATTR Value 10
SYMBOL ind 528 976 R270
WINDOW 0 32 56 VTop 0
WINDOW 3 5 56 VBottom 0
SYMATTR InstName L1
SYMATTR Value 3.3u
SYMATTR SpiceLine Rser=0.05
SYMBOL cap 368 608 R0
SYMATTR InstName C5
SYMATTR Value 10u
SYMBOL schottky 448 1056 M180
WINDOW 3 24 0 Left 0
WINDOW 0 24 72 Left 0
SYMATTR Value MBRS140
SYMATTR InstName D2
SYMBOL cap 800 1360 R0
WINDOW 0 27 8 Left 0
WINDOW 3 23 68 Left 0
SYMATTR InstName C6
SYMATTR Value 4.7u
SYMATTR SpiceLine Rser=0.006
SYMBOL polcap 672 1376 R0
SYMATTR InstName C7
SYMATTR Value 330u
SYMATTR SpiceLine Rser=0.015
SYMBOL polcap -592 608 R0
SYMATTR InstName C8
SYMATTR Value 22u
SYMATTR SpiceLine Rser=0.03
SYMBOL polcap 176 624 R0
SYMATTR InstName C9
SYMATTR Value 4.7u
SYMATTR SpiceLine Rser=0.03
SYMBOL cap 112 624 R0
WINDOW 3 30 52 Left 0
SYMATTR Value 1u
SYMATTR InstName C10
SYMATTR SpiceLine Rser=0.003
SYMBOL nmos 272 688 R0
SYMATTR InstName Q1
SYMATTR Value Si4840DY
SYMBOL nmos 272 976 R0
SYMATTR InstName Q2
SYMATTR Value Si4840DY
SYMBOL cap -592 1264 R270
WINDOW 0 32 32 VTop 0
WINDOW 3 0 32 VBottom 0
SYMATTR InstName C11
SYMATTR Value .001u
SYMBOL PowerProducts\\LTC3835 -224 1008 R0
SYMATTR InstName U1
SYMBOL res 912 1344 R0
SYMATTR InstName Rload
SYMATTR Value 1
TEXT 872 1296 Left 0 ;3.3V@5A
TEXT 8 512 Top 0 ;LTC3835 - Single 5A High Frequency Synchronous Buck Converter\nInput: 4.5-32V   Outputs: 3.3V@5A
TEXT -672 1528 Left 0 ;Note:\n  If the simulation model is not found please update with the "Sync Release" command from the "Tools" menu.\n  It remains the customer's responsibility to verify proper and reliable operation in the actual application.\n  Component substitution and printed circuit board layout may significantly affect circuit performance or reliability\n  Contact your local sales representative for assistance. This circuit is distributed to customers only for use with LTC parts\n  Copyright © 2007 Linear Technology Inc. All rights reserved.
TEXT 664 1536 Left 0 !.tran 1m startup
TEXT 504 904 Left 0 ;CDEP105-3R2MC
