Version 4
SHEET 1 1840 832
WIRE 352 -32 240 -32
WIRE 528 -32 352 -32
WIRE 688 -32 528 -32
WIRE 1008 -32 688 -32
WIRE 240 -16 240 -32
WIRE 352 -16 352 -32
WIRE 528 -16 528 -32
WIRE 688 -16 688 -32
WIRE 688 80 688 64
WIRE 784 80 688 80
WIRE 880 80 848 80
WIRE 1008 80 1008 -32
WIRE 240 96 240 64
WIRE 352 96 352 48
WIRE 528 96 528 64
WIRE 688 96 688 80
WIRE 960 160 784 160
WIRE 432 224 400 224
WIRE 816 224 784 224
WIRE 1008 224 1008 176
WIRE 1008 224 816 224
WIRE 1072 224 1008 224
WIRE 1216 224 1152 224
WIRE 1312 224 1216 224
WIRE 1424 224 1312 224
WIRE 1552 224 1424 224
WIRE 1216 256 1216 224
WIRE 1552 256 1552 224
WIRE 1312 272 1312 224
WIRE 1424 272 1424 224
WIRE 352 288 336 288
WIRE 432 288 416 288
WIRE 816 288 784 288
WIRE 1008 336 1008 224
WIRE 432 352 416 352
WIRE 816 352 784 352
WIRE 1216 368 1216 336
WIRE 1216 368 1184 368
WIRE 1216 384 1216 368
WIRE 1312 384 1312 336
WIRE 1424 384 1424 336
WIRE 1552 384 1552 336
WIRE 256 416 208 416
WIRE 368 416 336 416
WIRE 432 416 368 416
WIRE 960 416 784 416
WIRE 208 432 208 416
WIRE 368 432 368 416
WIRE 1008 448 1008 432
WIRE 1184 480 1184 368
WIRE 1184 480 784 480
WIRE 1216 480 1216 464
WIRE 208 512 208 496
WIRE 368 512 368 496
WIRE 816 512 816 352
WIRE 528 560 528 544
WIRE 688 560 688 544
FLAG 528 560 0
FLAG 688 560 0
FLAG 1008 448 0
FLAG 816 576 0
FLAG 1552 384 0
FLAG 1216 480 0
FLAG 1312 384 0
FLAG 208 512 0
FLAG 240 96 0
FLAG 336 288 0
FLAG 352 96 0
FLAG 240 -32 IN
FLAG 1552 224 OUT
FLAG 1424 384 0
FLAG 880 80 0
FLAG 416 352 0
FLAG 368 512 0
FLAG 400 224 0
SYMBOL NMOS 960 336 R0
SYMATTR InstName Q1
SYMATTR Value RJK0301DPB
SYMBOL RES 512 -32 R0
SYMATTR InstName R1
SYMATTR Value 499K
SYMBOL res 1200 240 R0
SYMATTR InstName R2
SYMATTR Value 10K
SYMBOL res 1200 368 R0
SYMATTR InstName R3
SYMATTR Value 20K
SYMBOL schottky 800 352 M180
WINDOW 0 37 38 Left 0
WINDOW 3 26 -4 Left 0
SYMATTR InstName D1
SYMATTR Value CMDSH2-3
SYMBOL cap 800 512 R0
WINDOW 3 41 47 Left 0
WINDOW 0 44 17 Left 0
SYMATTR Value 4.7µ
SYMATTR InstName C1
SYMBOL nmos 960 80 R0
SYMATTR InstName Q2
SYMATTR Value RJK0305DPB
SYMBOL ind 1056 240 R270
WINDOW 0 32 56 VTop 0
WINDOW 3 5 56 VBottom 0
SYMATTR InstName L1
SYMATTR Value .47µ
SYMATTR SpiceLine Rser=0.69m Rpar=100
SYMBOL polcap 1296 272 R0
WINDOW 40 24 85 Left 0
SYMATTR SpiceLine2 m=2
SYMATTR InstName Cout1
SYMATTR Value 330µ
SYMATTR SpiceLine Rser=9m
SYMBOL VOLTAGE 240 -32 R0
SYMATTR InstName V1
SYMATTR Value 12
SYMBOL cap 416 272 R90
WINDOW 0 0 32 VBottom 0
WINDOW 3 32 32 VTop 0
SYMATTR InstName C4
SYMATTR Value 1n
SYMBOL cap 800 224 R0
WINDOW 0 28 17 Left 0
WINDOW 3 26 48 Left 0
SYMATTR InstName C5
SYMATTR Value .1µ
SYMBOL res 1536 240 R0
SYMATTR InstName Rload
SYMATTR Value 67m
SYMBOL cap 1408 272 R0
WINDOW 3 27 54 Left 0
WINDOW 40 34 82 Left 0
SYMATTR Value 100µ
SYMATTR SpiceLine2 m=2
SYMATTR InstName Cout2
SYMATTR SpiceLine Rser=2m
SYMBOL cap 192 432 R0
SYMATTR InstName C2
SYMATTR Value 390p
SYMBOL res 352 400 R90
WINDOW 0 0 56 VBottom 0
WINDOW 3 32 56 VTop 0
SYMATTR InstName R5
SYMATTR Value 13K
SYMBOL cap 352 432 R0
SYMATTR InstName C3
SYMATTR Value 68p
SYMBOL cap 336 -16 R0
WINDOW 40 24 92 Left 0
SYMATTR SpiceLine2 m=2
SYMATTR InstName C6
SYMATTR Value 10µ
SYMATTR SpiceLine Rser=5m
SYMBOL res 672 -32 R0
SYMATTR InstName R4
SYMATTR Value 2.2
SYMBOL cap 784 64 M90
WINDOW 0 0 32 VBottom 0
WINDOW 3 32 32 VTop 0
SYMATTR InstName C7
SYMATTR Value 1µ
SYMBOL PowerProducts\\LTC3878 608 320 R0
SYMATTR InstName U1
TEXT 1304 520 Left 0 !.tran 2.5m startup
TEXT 824 -40 Bottom 0 ;LTC3878 - Fast, Wide Operating Range No Rsense Step-Down DC/DC Controller\nInput: 4.5V-14V     Output: 1.2V @ 18A, Fsw = 340kHz typical
TEXT 176 584 Left 0 ;Note:\n  If the simulation model is not found please update with the "Sync Release" command from the "Tools" menu.\n  It remains the customer's responsibility to verify proper and reliable operation in the actual application.\n  Component substitution and printed circuit board layout may significantly affect circuit performance or reliability.\n  Contact your local sales representative for assistance. This circuit is distributed to customers only for use with LTC parts.\n  Copyright © 2011 Linear Technology Inc. All rights reserved.
TEXT 1496 424 Left 0 ;1.2V @ 18A
