Version 4
SHEET 1 1496 720
WIRE 192 -16 160 -16
WIRE 288 -16 272 -16
WIRE 160 32 160 -16
WIRE 288 32 288 -16
WIRE 80 96 0 96
WIRE 96 96 80 96
WIRE 384 96 352 96
WIRE 544 96 384 96
WIRE 640 96 544 96
WIRE 736 96 640 96
WIRE 832 96 736 96
WIRE 0 112 0 96
WIRE 640 112 640 96
WIRE 736 112 736 96
WIRE 832 112 832 96
WIRE 384 160 384 96
WIRE 80 192 80 96
WIRE 96 192 80 192
WIRE 544 192 544 96
WIRE 0 208 0 192
WIRE 640 208 640 176
WIRE 736 208 736 176
WIRE 832 208 832 192
WIRE 96 288 80 288
WIRE 384 288 384 224
WIRE 384 288 352 288
WIRE 544 288 544 272
WIRE 544 288 384 288
WIRE 384 304 384 288
WIRE 544 304 544 288
WIRE 0 384 -16 384
WIRE 96 384 80 384
WIRE 384 384 384 368
WIRE 384 384 352 384
WIRE 544 400 544 384
WIRE 160 464 160 448
WIRE 288 464 288 448
FLAG 160 464 0
FLAG 288 464 0
FLAG 0 208 0
FLAG 0 96 IN
FLAG 544 400 0
FLAG 640 208 0
FLAG 832 96 OUT
FLAG -16 384 0
FLAG 80 288 0
FLAG 736 208 0
FLAG 832 208 0
SYMBOL voltage 0 96 R0
WINDOW 123 0 0 Left 0
WINDOW 39 0 0 Left 0
SYMATTR InstName V1
SYMATTR Value 3.3
SYMBOL ind 176 0 R270
WINDOW 0 32 56 VTop 0
WINDOW 3 5 56 VBottom 0
SYMATTR InstName L1
SYMATTR Value 2.2µ
SYMBOL cap 368 304 R0
WINDOW 39 29 62 Left 0
WINDOW 3 41 34 Left 0
WINDOW 0 33 5 Left 0
WINDOW 40 27 93 Left 0
SYMATTR SpiceLine Rser=68K
SYMATTR Value 220p
SYMATTR InstName C1
SYMATTR SpiceLine2 Cpar=10p
SYMBOL res 528 176 R0
SYMATTR InstName R1
SYMATTR Value 845K
SYMBOL res 528 288 R0
SYMATTR InstName R2
SYMATTR Value 158K
SYMBOL cap 368 160 R0
WINDOW 39 26 63 Left 0
WINDOW 3 38 33 Left 0
WINDOW 0 26 2 Left 0
SYMATTR SpiceLine Rser=10K
SYMATTR Value 33p
SYMATTR InstName C2
SYMBOL cap 624 112 R0
SYMATTR InstName C3
SYMATTR Value 200µ
SYMBOL PowerProducts\\LTC3113 224 240 R0
SYMATTR InstName U1
SYMBOL res 96 368 R90
WINDOW 0 0 56 VBottom 0
WINDOW 3 32 56 VTop 0
SYMATTR InstName R3
SYMATTR Value 90.9K
SYMBOL cap 720 112 R0
SYMATTR InstName C4
SYMATTR Value 4.7µ
SYMBOL current 832 112 R0
WINDOW 123 0 0 Left 0
WINDOW 39 0 0 Left 0
SYMATTR InstName Load
SYMATTR Value PULSE(0 3 2.2m 1u 1u .5m)
TEXT 648 400 Left 0 !.tran 3m startup
TEXT -96 480 Left 0 ;Notes:\n  If the simulation model is not found please update with the "Sync Release" command from the "Tools" menu.\n  It remains the customer's responsibility to verify proper and reliable operation in the actual application.\n  Component substitution and printed circuit board layout may significantly affect circuit performance or reliability.\n  Contact your local sales representative for assistance. This circuit is distributed to customers only for use with LTC parts.\n  Copyright © 2011 Linear Technology Inc. All rights reserved.
TEXT 472 -64 Bottom 0 ;LTC3113 - 3A Low Noise Buck-Boost DC/DC Converter\nPulsed Load or Portable RF Power Amplifier Application\nInput: 3.3V      Output: 3.8V @ 3A     Fswitch = 1MHz
