Version 4
SHEET 1 3224 680
WIRE -32 -368 -128 -368
WIRE 80 -368 -32 -368
WIRE 192 -368 80 -368
WIRE 400 -368 192 -368
WIRE 624 -368 400 -368
WIRE -128 -352 -128 -368
WIRE -32 -352 -32 -368
WIRE 80 -352 80 -368
WIRE 192 -352 192 -368
WIRE 400 -352 400 -368
WIRE 400 -272 400 -288
WIRE -128 -256 -128 -272
WIRE -32 -256 -32 -288
WIRE 80 -256 80 -288
WIRE 192 -208 192 -272
WIRE 272 -208 192 -208
WIRE 624 -208 624 -368
WIRE 624 -208 528 -208
WIRE 272 -112 256 -112
WIRE 624 -112 624 -128
WIRE 624 -112 528 -112
WIRE 624 -32 624 -112
WIRE -16 -16 -80 -16
WIRE 96 -16 64 -16
WIRE 272 -16 96 -16
WIRE 576 -16 528 -16
WIRE -80 0 -80 -16
WIRE 96 0 96 -16
WIRE -80 80 -80 64
WIRE 96 80 96 64
WIRE 192 80 176 80
WIRE 272 80 256 80
WIRE 576 80 528 80
WIRE 624 80 624 64
WIRE 720 80 624 80
WIRE 832 80 800 80
WIRE 944 80 832 80
WIRE 1056 80 944 80
WIRE 1168 80 1056 80
WIRE 624 96 624 80
WIRE 832 96 832 80
WIRE 944 96 944 80
WIRE 1056 96 1056 80
WIRE 1168 96 1168 80
WIRE 272 176 256 176
WIRE 544 176 528 176
WIRE 624 176 624 160
WIRE 1056 192 1056 160
WIRE 1168 192 1168 176
WIRE 576 208 576 80
WIRE 944 208 944 176
WIRE 944 208 576 208
WIRE 944 224 944 208
WIRE 544 240 544 176
WIRE 832 240 832 176
WIRE 832 240 544 240
WIRE 352 256 352 240
WIRE 448 256 448 240
WIRE 944 320 944 304
FLAG 352 256 0
FLAG 448 256 0
FLAG 256 176 0
FLAG -80 80 0
FLAG -128 -256 0
FLAG 624 176 0
FLAG 944 320 0
FLAG 1056 192 0
FLAG 1168 192 0
FLAG -128 -368 IN
FLAG 1168 80 OUT
FLAG -32 -256 0
FLAG 80 -256 0
FLAG 96 80 0
FLAG 176 80 0
SYMBOL PowerProducts\\LTC3864 400 -16 R0
SYMATTR InstName U1
SYMBOL cap -96 0 R0
SYMATTR InstName C1
SYMATTR Value 3.3n
SYMBOL voltage -128 -368 R0
WINDOW 123 0 0 Left 2
WINDOW 39 0 0 Left 2
SYMATTR InstName V1
SYMATTR Value 24
SYMBOL cap 384 -352 R0
SYMATTR InstName C2
SYMATTR Value .1µ
SYMBOL res 608 -224 R0
SYMATTR InstName R1
SYMATTR Value 25m
SYMBOL pmos 576 64 M180
WINDOW 0 57 84 Left 2
WINDOW 3 54 49 Left 2
SYMATTR InstName Q1
SYMATTR Value FDC5614P
SYMBOL schottky 608 160 M180
WINDOW 0 24 64 Left 2
WINDOW 3 24 0 Left 2
SYMATTR InstName D1
SYMATTR Value B560C
SYMATTR Description Diode
SYMATTR Type diode
SYMBOL ind 704 96 R270
WINDOW 0 32 56 VTop 2
WINDOW 3 5 56 VBottom 2
SYMATTR InstName L1
SYMATTR Value 10µ
SYMATTR SpiceLine Ipk=4.3 Rser=0.027 Rpar=0 Cpar=0 mfg="Toko" pn="919AS-100M"
SYMBOL res 928 80 R0
SYMATTR InstName R2
SYMATTR Value 422K
SYMBOL res 928 208 R0
SYMATTR InstName R3
SYMATTR Value 80.6K
SYMBOL cap 80 0 R0
WINDOW 39 24 77 Left 2
SYMATTR InstName C3
SYMATTR Value 100p
SYMBOL res 816 80 R0
SYMATTR InstName R4
SYMATTR Value 100K
SYMATTR SpiceLine tol=1 pwr=0.1
SYMBOL cap 1040 96 R0
WINDOW 123 27 57 Left 2
WINDOW 3 39 32 Left 2
SYMATTR Value2 x2
SYMATTR Value 47µ
SYMATTR InstName C4
SYMATTR SpiceLine Rser=0.002
SYMBOL polcap -48 -352 R0
SYMATTR Value 12µ
SYMATTR InstName C5
SYMATTR SpiceLine Rser=0.93
SYMATTR Description Capacitor
SYMATTR Type cap
SYMBOL cap 64 -352 R0
SYMATTR Value 4.7µ
SYMATTR InstName C6
SYMATTR SpiceLine Rser=0.004
SYMBOL res 80 -32 R90
WINDOW 0 0 56 VBottom 2
WINDOW 3 32 56 VTop 2
SYMATTR InstName R5
SYMATTR Value 9.53K
SYMBOL res 176 -368 R0
SYMATTR InstName R6
SYMATTR Value 100K
SYMBOL res 1152 80 R0
SYMATTR InstName Rload
SYMATTR Value 2.5
SYMATTR SpiceLine tol=1 pwr=0.1
SYMBOL cap 256 64 R90
WINDOW 0 0 32 VBottom 2
WINDOW 3 32 32 VTop 2
SYMATTR InstName C7
SYMATTR Value .01µ
TEXT 1064 312 Left 2 !.tran 1.5m startup
TEXT 528 -384 Bottom 2 ;LTC3864 - 60V Low Iq Step-Down DC/DC Controller with 100% Duty Cycle Capability\n5V Output Automotive Step-Down Converter\nInput: 5.2V to 55V     Output: 5V @ 2A, Fsw = 350KHz\nVout follows Vin when 3.5V <= Vin <= 5.2V
TEXT -144 336 Left 2 ;Notes:\n  A smaller SS capacitor (C7) is being used to reduce simulation time. Typical value should be 0.1µF.\n  If the simulation model is not found please update with the "Sync Release" command from the "Tools" menu.\n  It remains the customer's responsibility to verify proper and reliable operation in the actual application.\n  Component substitution and printed circuit board layout may significantly affect circuit performance or reliability.\n  Contact your local sales representative for assistance. This circuit is distributed to customers only for use with LTC parts.\n  Copyright © 2013 Linear Technology Inc. All rights reserved.
