Version 4
SHEET 1 3584 2156
WIRE 2752 960 2752 944
WIRE 1792 1184 1664 1184
WIRE 1904 1184 1792 1184
WIRE 2144 1184 1904 1184
WIRE 2272 1184 2144 1184
WIRE 1664 1200 1664 1184
WIRE 1792 1216 1792 1184
WIRE 2144 1216 2144 1184
WIRE 2272 1216 2272 1184
WIRE 2016 1264 2000 1264
WIRE 2480 1264 2400 1264
WIRE 2528 1264 2480 1264
WIRE 2640 1264 2608 1264
WIRE 2480 1280 2480 1264
WIRE 2640 1280 2640 1264
WIRE 1664 1296 1664 1280
WIRE 1792 1296 1792 1280
WIRE 1904 1328 1904 1184
WIRE 2016 1328 1904 1328
WIRE 2416 1328 2400 1328
WIRE 2480 1360 2480 1344
WIRE 2640 1360 2640 1344
WIRE 1904 1392 1904 1328
WIRE 1920 1392 1904 1392
WIRE 2016 1392 2000 1392
WIRE 2480 1424 2448 1424
WIRE 2592 1424 2560 1424
WIRE 2672 1424 2592 1424
WIRE 2784 1424 2672 1424
WIRE 2848 1424 2784 1424
WIRE 2960 1424 2848 1424
WIRE 2672 1440 2672 1424
WIRE 2960 1440 2960 1424
WIRE 1904 1456 1904 1392
WIRE 2016 1456 1904 1456
WIRE 2448 1456 2448 1424
WIRE 2448 1456 2400 1456
WIRE 2592 1456 2592 1424
WIRE 2848 1456 2848 1424
WIRE 2448 1520 2400 1520
WIRE 2848 1552 2848 1520
WIRE 2960 1552 2960 1520
WIRE 2448 1568 2448 1520
WIRE 2592 1568 2592 1520
WIRE 2592 1568 2448 1568
WIRE 2672 1568 2672 1520
WIRE 2672 1568 2592 1568
WIRE 2416 1584 2400 1584
WIRE 2672 1584 2672 1568
WIRE 1840 1648 1792 1648
WIRE 1952 1648 1920 1648
WIRE 2016 1648 1952 1648
WIRE 2512 1648 2400 1648
WIRE 1792 1664 1792 1648
WIRE 1952 1664 1952 1648
WIRE 2672 1680 2672 1664
WIRE 2160 1712 2160 1696
WIRE 2272 1712 2272 1696
WIRE 2512 1712 2512 1648
WIRE 2784 1712 2784 1424
WIRE 2784 1712 2512 1712
WIRE 1792 1744 1792 1728
WIRE 1952 1744 1952 1728
FLAG 2272 1712 0
FLAG 1664 1296 0
FLAG 2960 1552 0
FLAG 2848 1552 0
FLAG 1664 1184 IN
FLAG 2672 1680 0
FLAG 2960 1424 OUT
FLAG 1792 1296 0
FLAG 2000 1264 0
FLAG 2416 1328 0
FLAG 1952 1744 0
FLAG 1792 1744 0
FLAG 2480 1360 0
FLAG 2640 1360 0
FLAG 2416 1584 0
FLAG 2160 1712 0
SYMBOL ind 2464 1440 R270
WINDOW 0 32 56 VTop 0
WINDOW 3 5 56 VBottom 0
SYMATTR InstName L1
SYMATTR Value .2u
SYMATTR SpiceLine Rser=.0042
SYMBOL RES 2656 1424 R0
SYMATTR InstName R1
SYMATTR Value 30.1K
SYMBOL VOLTAGE 1664 1184 R0
WINDOW 123 0 0 Left 0
SYMATTR SpiceLine Rser=0.01
SYMATTR InstName V1
SYMATTR Value 3.3
SYMBOL cap 2832 1456 R0
WINDOW 3 40 34 Left 0
WINDOW 40 34 64 Left 0
SYMATTR Value 55u
SYMATTR SpiceLine2 x2
SYMATTR InstName C1
SYMATTR SpiceLine V=10 Irms=8.919 Rser=0.0025 MTBF=0 ppPkg=1
SYMBOL res 2656 1568 R0
WINDOW 0 35 46 Left 0
SYMATTR InstName R2
SYMATTR Value 15K
SYMBOL current 2960 1440 R0
WINDOW 123 0 0 Left 0
WINDOW 39 38 42 Left 0
SYMATTR SpiceLine load
SYMATTR Value PULSE(1 6 150u 50n 50n 50u 100u 500)
SYMATTR InstName I1
SYMBOL cap 2576 1456 R0
SYMATTR InstName C2
SYMATTR Value 22p
SYMBOL cap 2624 1280 R0
WINDOW 0 33 8 Left 0
WINDOW 3 30 56 Left 0
SYMATTR InstName C3
SYMATTR Value 470p
SYMBOL RES 2624 1248 R90
WINDOW 3 32 56 VTop 0
WINDOW 0 0 56 VBottom 0
SYMATTR Value 10K
SYMATTR InstName R3
SYMBOL cap 1776 1216 R0
WINDOW 3 40 33 Left 0
WINDOW 40 33 57 Left 0
SYMATTR Value 65u
SYMATTR SpiceLine2 x2
SYMATTR InstName C4
SYMATTR SpiceLine V=10 Irms=8.919 Rser=0.005 MTBF=0 Lser=0 mfg="KEMET" pn="C1210C106K8PAC" type="X5R" ppPkg=1
SYMBOL PowerProducts\\LTC3415 2208 1456 R0
SYMATTR InstName U1
SYMBOL res 2016 1376 R90
WINDOW 0 0 56 VBottom 0
WINDOW 3 32 56 VTop 0
SYMATTR InstName R4
SYMATTR Value 100K
SYMBOL cap 2464 1280 R0
WINDOW 0 33 8 Left 0
WINDOW 3 30 56 Left 0
SYMATTR InstName C5
SYMATTR Value 47p
SYMBOL cap 1776 1664 R0
WINDOW 0 33 8 Left 0
WINDOW 3 30 56 Left 0
SYMATTR InstName C6
SYMATTR Value 100p
SYMBOL RES 1936 1632 R90
WINDOW 3 32 56 VTop 0
WINDOW 0 0 56 VBottom 0
SYMATTR Value 5.1K
SYMATTR InstName R5
SYMBOL cap 1936 1664 R0
WINDOW 0 33 8 Left 0
WINDOW 3 30 56 Left 0
SYMATTR InstName C7
SYMATTR Value 39p
TEXT 2856 1680 Left 0 !.tran 250u startup
TEXT 1672 1760 Left 0 ;Note:\n  If the simulation model is not found please update with the "Sync Release" command from the "Tools" menu.\n  It remains the customer's responsibility to verify proper and reliable operation in the actual application.\n  Component substitution and printed circuit board layout may significantly affect circuit performance or reliability\n  Contact your local sales representative for assistance. This circuit is distributed to customers only for use with LTC parts\n  Copyright © 2007 Linear Technology Inc. All rights reserved.
TEXT 2240 1168 Bottom 0 ;LTC3415 - 7A, Polyphase Synchronous Step-Down Regulator\nInput: 3.3V     Output: 1.8V @ 5A
