Version 4
SHEET 1 1300 916
WIRE -576 0 -672 0
WIRE -400 0 -576 0
WIRE 224 0 -400 0
WIRE 544 0 272 0
WIRE 640 0 544 0
WIRE 720 0 640 0
WIRE -672 16 -672 0
WIRE -576 16 -576 0
WIRE 224 16 224 0
WIRE 272 16 272 0
WIRE 544 16 544 0
WIRE 720 16 720 0
WIRE -400 64 -400 0
WIRE -576 112 -576 96
WIRE -464 112 -576 112
WIRE 224 112 224 96
WIRE 224 112 128 112
WIRE 272 112 272 96
WIRE 416 112 272 112
WIRE 496 112 480 112
WIRE 544 112 544 80
WIRE 720 112 720 96
WIRE -672 128 -672 96
WIRE -576 176 -576 112
WIRE -400 176 -400 160
WIRE -320 176 -400 176
WIRE -160 176 -320 176
WIRE 272 176 -160 176
WIRE 432 176 272 176
WIRE -400 192 -400 176
WIRE 128 192 128 112
WIRE -160 224 -160 176
WIRE -576 256 -576 240
WIRE -400 272 -400 256
WIRE -320 272 -320 176
WIRE -304 272 -320 272
WIRE 80 272 -16 272
WIRE 272 288 272 176
WIRE 432 288 432 176
WIRE 0 352 -16 352
WIRE 128 368 128 288
WIRE 128 368 96 368
WIRE 128 384 128 368
WIRE 272 400 272 368
WIRE 432 400 432 368
WIRE -464 432 -512 432
WIRE -304 432 -384 432
WIRE 0 432 -16 432
WIRE 96 432 96 368
WIRE 96 432 80 432
WIRE 352 448 336 448
WIRE 368 448 352 448
WIRE 128 480 128 464
WIRE -496 512 -512 512
WIRE -400 512 -432 512
WIRE -304 512 -320 512
WIRE 272 512 272 496
WIRE 272 512 -16 512
WIRE 352 512 352 448
WIRE 432 512 432 496
WIRE 432 512 352 512
WIRE 272 528 272 512
WIRE 432 528 432 512
WIRE -160 560 -160 544
WIRE 272 624 272 608
WIRE 432 624 432 608
WIRE 640 624 640 0
WIRE 640 624 432 624
FLAG 128 480 0
FLAG -160 560 0
FLAG -512 512 0
FLAG -400 272 0
FLAG 720 112 0
FLAG 272 624 0
FLAG 0 352 0
FLAG 544 112 0
FLAG 496 112 0
FLAG -672 128 0
FLAG 720 0 OUT
FLAG -672 0 IN
FLAG -512 432 0
FLAG -576 256 0
SYMBOL ind2 208 0 R0
WINDOW 0 -4 39 Right 0
WINDOW 3 -2 69 Right 0
SYMATTR InstName L1
SYMATTR Value 21µ
SYMBOL ind2 288 0 M0
WINDOW 0 0 40 Right 0
WINDOW 3 2 79 Right 0
SYMATTR InstName L2
SYMATTR Value 336µ
SYMBOL nmos 80 192 R0
WINDOW 3 54 65 Left 0
SYMATTR Value Si3440DV
SYMATTR InstName Q1
SYMBOL res 112 368 R0
SYMATTR InstName R1
SYMATTR Value 0.035
SYMBOL diode 416 96 M90
WINDOW 0 0 32 VBottom 0
WINDOW 3 32 32 VTop 0
SYMATTR InstName D1
SYMATTR Value GSD2004W-V
SYMBOL cap 528 80 M180
WINDOW 0 24 64 Left 0
WINDOW 3 24 8 Left 0
SYMATTR InstName C1
SYMATTR Value 0.47µ
SYMBOL PowerProducts\\LTC3805-5 -160 384 R0
SYMATTR InstName U1
SYMBOL res -304 496 R90
WINDOW 0 0 56 VBottom 0
WINDOW 3 32 56 VTop 0
SYMATTR InstName R2
SYMATTR Value 34.8K
SYMBOL cap -432 496 R90
WINDOW 0 0 32 VBottom 0
WINDOW 3 32 32 VTop 0
SYMATTR InstName C2
SYMATTR Value 4.7n
SYMBOL res -368 416 R90
WINDOW 0 0 56 VBottom 0
WINDOW 3 32 56 VTop 0
SYMATTR InstName R3
SYMATTR Value 100K
SYMBOL voltage -672 0 R0
WINDOW 123 24 146 Left 0
WINDOW 39 24 125 Left 0
SYMATTR Value 24
SYMATTR InstName V1
SYMBOL pnp 336 496 R180
WINDOW 0 50 61 Left 0
WINDOW 3 41 35 Left 0
SYMATTR InstName Q2
SYMATTR Value 2N3906
SYMBOL res 256 272 R0
SYMATTR Value 511
SYMATTR InstName R4
SYMBOL res 416 272 R0
SYMATTR InstName R5
SYMATTR Value 511
SYMBOL res 256 512 R0
SYMATTR InstName R6
SYMATTR Value 806
SYMBOL res 416 512 R0
SYMATTR InstName R7
SYMATTR Value 107K
SYMBOL pnp 368 496 M180
WINDOW 0 56 66 Left 0
WINDOW 3 60 34 Left 0
SYMATTR InstName Q3
SYMATTR Value 2N3906
SYMBOL cap -416 256 M180
WINDOW 0 24 64 Left 0
WINDOW 3 24 8 Left 0
SYMATTR InstName C3
SYMATTR Value 0.1µ
SYMBOL npn -464 64 R0
WINDOW 3 49 62 Left 0
WINDOW 0 50 29 Left 0
SYMATTR Value 2N3904
SYMATTR InstName Q4
SYMBOL zener -592 240 M180
WINDOW 0 26 61 Left 0
WINDOW 3 21 -3 Left 0
SYMATTR InstName D2
SYMATTR Value BZX84C8V2L
SYMATTR Description Diode
SYMATTR Type diode
SYMBOL res -592 0 R0
SYMATTR InstName R8
SYMATTR Value 100K
SYMBOL res 96 416 R90
WINDOW 0 0 56 VBottom 0
WINDOW 3 32 56 VTop 0
SYMATTR InstName R9
SYMATTR Value 3.16K
SYMBOL res 704 112 M180
WINDOW 0 36 76 Left 0
WINDOW 3 36 40 Left 0
SYMATTR InstName Rload
SYMATTR Value 2K
TEXT 624 664 Left 0 !.tran 2m startup
TEXT 248 0 Bottom 0 !K L1 L2 1
TEXT 248 -24 Bottom 0 ;VPH2-0216-R
TEXT -616 632 Left 0 ;Note:\n  If the simulation model is not found please update with the "Sync Release" command from the "Tools" menu.\n  It remains the customer's responsibility to verify proper and reliable operation in the actual application.\n  Component substitution and printed circuit board layout may significantly affect circuit performance or reliability.\n  Contact your local sales representative for assistance. This circuit is distributed to customers only for use with LTC parts.\n  Copyright © 2010 Linear Technology Inc. All rights reserved.
TEXT 48 -72 Bottom 0 ;LTC3805-5, Adjustable Frequency Current Mode Flyback/Boost/SEPIC DC/DC Controller\nInput: 18V to 36V      Output: -100V @ 50mA
TEXT 248 112 Top 0 ;1:4
RECTANGLE Normal 352 144 144 -64 2
