Version 4
SHEET 1 2372 1256
WIRE 32 -480 16 -480
WIRE 128 -480 112 -480
WIRE 144 -480 128 -480
WIRE 272 -480 224 -480
WIRE -512 -416 -592 -416
WIRE 224 -416 -512 -416
WIRE 944 -416 224 -416
WIRE 272 -400 272 -480
WIRE 272 -400 -320 -400
WIRE 320 -400 320 -432
WIRE 320 -400 272 -400
WIRE 752 -400 320 -400
WIRE -592 -384 -592 -416
WIRE -512 -384 -512 -416
WIRE -320 -384 -320 -400
WIRE 752 -384 752 -400
WIRE 944 -384 944 -416
WIRE 32 -368 32 -384
WIRE 128 -368 128 -480
WIRE 224 -368 224 -416
WIRE 320 -368 320 -400
WIRE -192 -304 -464 -304
WIRE 896 -304 720 -304
WIRE -592 -288 -592 -304
WIRE -320 -208 -320 -320
WIRE -192 -208 -320 -208
WIRE 752 -208 752 -320
WIRE 752 -208 720 -208
WIRE -320 -192 -320 -208
WIRE 752 -192 752 -208
WIRE -1056 -112 -1440 -112
WIRE -928 -112 -1056 -112
WIRE -832 -112 -928 -112
WIRE -768 -112 -832 -112
WIRE -672 -112 -688 -112
WIRE -608 -112 -672 -112
WIRE -512 -112 -512 -288
WIRE -512 -112 -608 -112
WIRE -320 -112 -320 -128
WIRE -320 -112 -512 -112
WIRE -192 -112 -320 -112
WIRE 752 -112 752 -128
WIRE 752 -112 720 -112
WIRE 944 -112 944 -288
WIRE 944 -112 752 -112
WIRE 1168 -112 944 -112
WIRE 1248 -112 1168 -112
WIRE 1264 -112 1248 -112
WIRE 1360 -112 1344 -112
WIRE 1424 -112 1360 -112
WIRE 1536 -112 1424 -112
WIRE 1664 -112 1536 -112
WIRE -1440 -96 -1440 -112
WIRE -1056 -96 -1056 -112
WIRE -928 -96 -928 -112
WIRE -512 -96 -512 -112
WIRE 944 -96 944 -112
WIRE 1424 -96 1424 -112
WIRE 1536 -96 1536 -112
WIRE 1664 -96 1664 -112
WIRE -608 -64 -608 -112
WIRE 1168 -48 1168 -112
WIRE -192 -16 -464 -16
WIRE 896 -16 720 -16
WIRE -1440 0 -1440 -16
WIRE -1056 0 -1056 -32
WIRE -928 0 -928 -32
WIRE 1424 0 1424 -32
WIRE 1536 0 1536 -32
WIRE 1664 0 1664 -16
WIRE -512 32 -512 0
WIRE 944 32 944 0
WIRE -672 80 -672 -112
WIRE -608 80 -608 16
WIRE -304 80 -608 80
WIRE -192 80 -304 80
WIRE 800 80 720 80
WIRE 1168 80 1168 32
WIRE 1168 80 800 80
WIRE 1248 80 1248 -112
WIRE -304 96 -304 80
WIRE 800 96 800 80
WIRE -832 176 -832 -112
WIRE -304 176 -304 160
WIRE -304 176 -832 176
WIRE -192 176 -304 176
WIRE 800 176 800 160
WIRE 800 176 720 176
WIRE 1360 176 1360 -112
WIRE 1360 176 800 176
WIRE -304 192 -304 176
WIRE 800 192 800 176
WIRE -832 256 -832 176
WIRE 1360 256 1360 176
WIRE -672 272 -672 160
WIRE -304 272 -304 256
WIRE -304 272 -672 272
WIRE -192 272 -304 272
WIRE 800 272 800 256
WIRE 800 272 720 272
WIRE 1248 272 1248 160
WIRE 1248 272 800 272
WIRE -832 368 -832 336
WIRE -192 368 -832 368
WIRE 1360 368 1360 336
WIRE 1360 368 720 368
WIRE -832 384 -832 368
WIRE 1360 384 1360 368
WIRE -192 464 -208 464
WIRE 736 464 720 464
WIRE -832 480 -832 464
WIRE 1360 480 1360 464
WIRE -368 560 -400 560
WIRE -192 560 -304 560
WIRE 848 560 720 560
WIRE 928 560 912 560
WIRE -304 656 -320 656
WIRE -192 656 -240 656
WIRE 752 656 720 656
WIRE 832 656 816 656
WIRE 80 832 80 816
WIRE 272 832 272 816
WIRE 80 928 80 912
FLAG 272 832 0
FLAG -592 -288 0
FLAG 320 -496 0
FLAG -512 32 0
FLAG -208 464 0
FLAG -832 480 0
FLAG 928 560 0
FLAG -320 656 0
FLAG 944 32 0
FLAG 736 464 0
FLAG 1360 480 0
FLAG 80 928 0
FLAG -928 0 0
FLAG 1664 -112 OUT2
FLAG -592 -416 IN
FLAG 16 -480 0
FLAG -1056 0 0
FLAG 1536 0 0
FLAG 1424 0 0
FLAG -1440 -112 OUT1
FLAG 832 656 0
FLAG -400 560 0
FLAG -1440 0 0
FLAG 1664 0 0
FLAG 32 -384 0
SYMBOL LTC3875 272 224 R0
SYMATTR InstName U1
SYMBOL voltage -592 -400 R0
SYMATTR InstName V1
SYMATTR Value 12
SYMBOL cap 304 -496 R0
SYMATTR InstName C1
SYMATTR Value 4.7µ
SYMBOL nmos -464 -384 M0
WINDOW 0 38 -5 Right 2
WINDOW 3 33 106 Right 2
SYMATTR InstName Q1
SYMATTR Value BSC050NE2LS
SYMBOL nmos -464 -96 M0
WINDOW 0 -2 20 Right 2
WINDOW 3 36 109 Right 2
SYMATTR InstName Q2
SYMATTR Value BSC010NE2LSI
SYMBOL ind -672 -96 M270
WINDOW 0 32 56 VTop 2
WINDOW 3 5 56 VBottom 2
SYMATTR InstName L1
SYMATTR Value .25µ
SYMATTR SpiceLine Rser=.32m
SYMBOL cap -336 -192 R0
SYMATTR InstName C2
SYMATTR Value .1µ
SYMBOL schottky -336 -384 R0
SYMATTR InstName D1
SYMATTR Value CMDSH2-3
SYMATTR Description Diode
SYMATTR Type diode
SYMBOL cap -320 96 R0
SYMATTR InstName C3
SYMATTR Value 220n
SYMBOL cap -320 192 R0
SYMATTR InstName C4
SYMATTR Value 220n
SYMBOL res -624 -80 R0
SYMATTR InstName R1
SYMATTR Value 715
SYMBOL res -688 64 R0
SYMATTR InstName R2
SYMATTR Value 3.57K
SYMBOL res -848 240 R0
SYMATTR InstName R3
SYMATTR Value 13.3K
SYMBOL res -848 368 R0
SYMATTR InstName R4
SYMATTR Value 20K
SYMBOL cap 848 544 M90
WINDOW 0 0 32 VBottom 2
WINDOW 3 29 32 VTop 2
WINDOW 39 47 32 VTop 2
SYMATTR InstName C5
SYMATTR Value 1500p
SYMATTR SpiceLine Rser=10K Cpar=150p
SYMBOL cap -240 640 R90
WINDOW 0 0 32 VBottom 2
WINDOW 3 32 32 VTop 2
SYMATTR InstName C6
SYMATTR Value .001µ
SYMBOL nmos 896 -384 R0
WINDOW 0 52 10 Left 2
WINDOW 3 53 114 Left 2
SYMATTR InstName Q3
SYMATTR Value BSC050NE2LS
SYMBOL nmos 896 -96 R0
WINDOW 0 59 16 Left 2
WINDOW 3 60 103 Left 2
SYMATTR InstName Q4
SYMATTR Value BSC010NE2LSI
SYMBOL ind 1248 -96 R270
WINDOW 0 32 56 VTop 2
WINDOW 3 5 56 VBottom 2
SYMATTR InstName L2
SYMATTR Value .33µ
SYMATTR SpiceLine Rser=.32m
SYMBOL cap 736 -192 R0
SYMATTR InstName C7
SYMATTR Value .1µ
SYMBOL schottky 736 -384 R0
SYMATTR InstName D2
SYMATTR Value CMDSH2-3
SYMATTR Description Diode
SYMATTR Type diode
SYMBOL cap 784 96 R0
SYMATTR InstName C8
SYMATTR Value 220n
SYMBOL cap 784 192 R0
SYMATTR InstName C9
SYMATTR Value 220n
SYMBOL res 1152 -64 R0
SYMATTR InstName R5
SYMATTR Value 931
SYMBOL res 1232 64 R0
SYMATTR InstName R6
SYMATTR Value 4.64K
SYMBOL res 1344 240 R0
SYMATTR InstName R7
SYMATTR Value 30.1K
SYMBOL res 1344 368 R0
SYMATTR InstName R8
SYMATTR Value 20K
SYMBOL res 64 816 R0
SYMATTR InstName R9
SYMATTR Value 100K
SYMBOL polcap -944 -96 R0
WINDOW 3 36 40 Left 2
WINDOW 123 24 72 Left 2
SYMATTR Value 330µ
SYMATTR Value2 x4
SYMATTR InstName C10
SYMATTR Description Capacitor
SYMATTR Type cap
SYMATTR SpiceLine V=2.5 Irms=6.5 Rser=0.009 Lser=0
SYMBOL res 240 -496 R90
WINDOW 0 0 56 VBottom 2
WINDOW 3 32 56 VTop 2
SYMATTR InstName R10
SYMATTR Value 3K
SYMBOL res 128 -496 R90
WINDOW 0 0 56 VBottom 2
WINDOW 3 32 56 VTop 2
SYMATTR InstName R11
SYMATTR Value 1K
SYMBOL cap -1072 -96 R0
WINDOW 3 36 41 Left 2
WINDOW 123 37 81 Left 2
SYMATTR Value 100µ
SYMATTR Value2 x3
SYMATTR InstName C11
SYMATTR SpiceLine Rser=2m
SYMBOL cap 1520 -96 R0
WINDOW 3 40 37 Left 2
WINDOW 123 31 72 Left 2
SYMATTR Value 100µ
SYMATTR Value2 x3
SYMATTR InstName C12
SYMATTR SpiceLine Rser=2m
SYMBOL polcap 1408 -96 R0
WINDOW 3 37 39 Left 2
WINDOW 123 29 68 Left 2
SYMATTR Value 330µ
SYMATTR Value2 x3
SYMATTR InstName C13
SYMATTR Description Capacitor
SYMATTR Type cap
SYMATTR SpiceLine V=2.5 Irms=6.5 Rser=0.009 Lser=0
SYMBOL cap 752 640 M90
WINDOW 0 0 32 VBottom 2
WINDOW 3 32 32 VTop 2
SYMATTR InstName C14
SYMATTR Value .001µ
SYMBOL cap -368 544 M90
WINDOW 0 0 32 VBottom 2
WINDOW 3 27 32 VTop 2
WINDOW 39 47 32 VTop 2
SYMATTR InstName C15
SYMATTR Value 1500p
SYMATTR SpiceLine Rser=10K Cpar=220p
SYMBOL current -1440 -96 R0
WINDOW 123 24 110 Left 2
WINDOW 39 40 38 Left 2
SYMATTR SpiceLine load
SYMATTR Value PULSE(20 35 .75m 5u 5u .1m)
SYMATTR InstName Load1
SYMBOL current 1664 -96 R0
WINDOW 123 24 110 Left 2
WINDOW 39 48 38 Left 2
SYMATTR SpiceLine load
SYMATTR Value PULSE(20 35 .75m 5u 5u .1m)
SYMATTR InstName Load2
TEXT 1104 688 Left 2 !.tran 1m startup
TEXT 224 -544 Bottom 2 ;LTC3875 - Dual, 2-Phase, Synchronous Controller with Low Value DCR Sensing and Temperature Compensation\nHigh Efficiency Dual Output Step-Down Converter with Ultralow DCR Sensing and Fast Transient\nInput: 4.5V to 14V     Outputs: 1V @ 30A & 1.5V @ 30A, Fswitch = 400kHz
TEXT -368 944 Left 2 ;Note:\n  Small value are used for TRACK/SS capacitors to reduce simulation time. The typical value for actual applications will vary from 10nF to 100nF.\n  More output capacitors may be needed to meet load step and output voltage requirements.\n  If the simulation model is not found please update with the "Sync Release" command from the "Tools" menu.\n  It remains the customer's responsibility to verify proper and reliable operation in the actual application.\n  Component substitution and printed circuit board layout may significantly affect circuit performance or reliability\n  Contact your local sales representative for assistance. This circuit is distributed to customers only for use with LTC parts\n  Copyright © 2014 Linear Technology Inc. All rights reserved.
