Version 4
SHEET 1 5868 2084
WIRE 1424 1280 1328 1280
WIRE 1504 1280 1424 1280
WIRE 1680 1280 1504 1280
WIRE 1776 1280 1680 1280
WIRE 1328 1296 1328 1280
WIRE 1424 1296 1424 1280
WIRE 1680 1296 1680 1280
WIRE 1776 1296 1776 1280
WIRE 1504 1344 1504 1280
WIRE 1584 1344 1504 1344
WIRE 1904 1344 1872 1344
WIRE 2016 1344 1984 1344
WIRE 2112 1344 2016 1344
WIRE 2192 1344 2112 1344
WIRE 2272 1344 2192 1344
WIRE 2016 1360 2016 1344
WIRE 2112 1360 2112 1344
WIRE 2192 1360 2192 1344
WIRE 2272 1360 2272 1344
WIRE 1328 1392 1328 1376
WIRE 1424 1392 1424 1360
WIRE 1504 1456 1504 1344
WIRE 1584 1456 1504 1456
WIRE 2016 1456 2016 1440
WIRE 2016 1456 1872 1456
WIRE 2112 1456 2112 1424
WIRE 2112 1456 2016 1456
WIRE 2192 1456 2192 1424
WIRE 2272 1456 2272 1440
WIRE 1504 1472 1504 1456
WIRE 2016 1472 2016 1456
WIRE 1504 1568 1504 1552
WIRE 1584 1568 1504 1568
WIRE 1888 1568 1872 1568
WIRE 1968 1568 1952 1568
WIRE 2016 1568 2016 1552
WIRE 1968 1584 1968 1568
WIRE 1680 1632 1680 1616
WIRE 1776 1632 1776 1616
WIRE 1968 1680 1968 1664
WIRE 1680 1728 1680 1712
FLAG 1776 1632 0
FLAG 1328 1392 0
FLAG 1680 1728 0
FLAG 2272 1456 0
FLAG 2016 1568 0
FLAG 2192 1456 0
FLAG 2272 1344 OUT
FLAG 1424 1392 0
FLAG 1328 1280 IN
FLAG 1968 1680 0
SYMBOL ind 1888 1360 R270
WINDOW 0 32 56 VTop 0
WINDOW 3 5 56 VBottom 0
SYMATTR InstName L1
SYMATTR Value 1µ
SYMATTR SpiceLine Ipk=2.3 Rser=0.06 Rpar=55000 Cpar=1.8p mfg="Coilcraft" pn="DO1608P-222"
SYMBOL RES 2000 1344 R0
SYMATTR InstName R1
SYMATTR Value 348K
SYMBOL VOLTAGE 1328 1280 R0
WINDOW 123 0 0 Left 0
WINDOW 39 24 132 Left 0
SYMATTR InstName V1
SYMATTR Value 3.3
SYMBOL res 2000 1456 R0
SYMATTR InstName R2
SYMATTR Value 174K
SYMBOL res 1664 1616 R0
SYMATTR InstName R3
SYMATTR Value 68.1K
SYMBOL res 1488 1456 R0
SYMATTR InstName R4
SYMATTR Value 100K
SYMBOL cap 2096 1360 R0
SYMATTR InstName C1
SYMATTR Value 10p
SYMBOL cap 1408 1296 R0
SYMATTR SpiceLine V=6.3 Irms=0 Rser=0.0008 MTBF=0 Lser=0 mfg="TDK" pn="C3225X5R0J226M" type="X5R" ppPkg=1
SYMATTR SpiceLine2 x1
SYMATTR InstName C2
SYMATTR Value 22µ
SYMBOL cap 2176 1360 R0
SYMATTR SpiceLine V=6.3 Irms=0 Rser=0.0008 MTBF=0 Lser=0 mfg="TDK" pn="C3225X5R0J226M" type="X5R" ppPkg=1
SYMATTR SpiceLine2 x1
SYMATTR InstName C3
SYMATTR Value 22µ
SYMBOL PowerProducts\\LTC3565 1728 1456 R0
SYMATTR InstName U1
SYMBOL res 1952 1568 R0
SYMATTR InstName R5
SYMATTR Value 13K
SYMBOL cap 1952 1552 R90
WINDOW 0 0 32 VBottom 0
WINDOW 3 32 32 VTop 0
SYMATTR InstName C4
SYMATTR Value 1000p
SYMBOL res 2256 1344 R0
SYMATTR InstName Rload
SYMATTR Value 1.43
TEXT 2024 1720 Left 0 !.tran 1.6m startup
TEXT 1848 1264 Bottom 0 ;LTC3565 - 1.25A, 4MHz, Synchronous Step-Down DC/DC Converter\nLi-Ion to 1.8V @ 1.25A Step-Down Regulator\nInput: 2.5V to 5.5V      Output: 1.8V @ 1.25A, Fsw = 2.25MHz
TEXT 1208 1744 Left 0 ;Note:\n  If the simulation model is not found please update with the "Sync Release" command from the "Tools" menu.\n  It remains the customer's responsibility to verify proper and reliable operation in the actual application.\n  Component substitution and printed circuit board layout may significantly affect circuit performance or reliability.\n  Contact your local sales representative for assistance. This circuit is distributed to customers only for use with LTC parts.\n  Copyright © 2011 Linear Technology Inc. All rights reserved.
