Version 4
SHEET 1 3300 2452
WIRE 1584 1504 1472 1504
WIRE 1632 1504 1584 1504
WIRE 1712 1504 1632 1504
WIRE 1872 1504 1712 1504
WIRE 1472 1520 1472 1504
WIRE 1632 1520 1632 1504
WIRE 1872 1520 1872 1504
WIRE 1712 1584 1712 1504
WIRE 1728 1584 1712 1584
WIRE 2048 1584 2016 1584
WIRE 2176 1584 2128 1584
WIRE 2288 1584 2176 1584
WIRE 2416 1584 2288 1584
WIRE 1472 1616 1472 1600
WIRE 1632 1616 1632 1584
WIRE 2416 1616 2416 1584
WIRE 2288 1632 2288 1584
WIRE 1728 1680 1712 1680
WIRE 2176 1680 2176 1664
WIRE 2176 1680 2016 1680
WIRE 2176 1696 2176 1680
WIRE 2288 1728 2288 1696
WIRE 2416 1728 2416 1696
WIRE 1648 1776 1632 1776
WIRE 1728 1776 1712 1776
WIRE 2032 1776 2016 1776
WIRE 2128 1776 2112 1776
WIRE 2176 1792 2176 1776
WIRE 1824 1856 1824 1840
WIRE 1920 1856 1920 1840
WIRE 1584 1888 1584 1504
WIRE 2128 1888 2128 1776
WIRE 2128 1888 1584 1888
FLAG 1920 1856 0
FLAG 1824 1856 0
FLAG 1472 1616 0
FLAG 2416 1728 0
FLAG 2176 1792 0
FLAG 2288 1728 0
FLAG 2416 1584 OUT
FLAG 1632 1616 0
FLAG 1472 1504 IN
FLAG 1712 1680 0
FLAG 1632 1776 0
SYMBOL ind 2032 1600 R270
WINDOW 0 32 56 VTop 2
WINDOW 3 5 56 VBottom 2
SYMATTR InstName L1
SYMATTR Value 4.7µ
SYMBOL RES 2160 1568 R0
WINDOW 3 34 76 Left 2
SYMATTR Value 100K
SYMATTR InstName R1
SYMBOL VOLTAGE 1472 1504 R0
WINDOW 3 27 94 Left 2
SYMATTR Value 12
SYMATTR InstName V1
SYMBOL res 2160 1680 R0
SYMATTR InstName R2
SYMATTR Value 100K
SYMBOL cap 2272 1632 R0
WINDOW 3 23 56 Left 2
SYMATTR Value 47µ
SYMATTR InstName C1
SYMBOL cap 1616 1520 R0
WINDOW 40 24 92 Left 2
SYMATTR InstName C3
SYMATTR Value 10µ
SYMBOL load2 2416 1616 R0
WINDOW 3 25 79 Left 2
WINDOW 123 0 0 Left 2
WINDOW 39 42 35 Left 2
SYMATTR Value PULSE(0.1 1 1.05m 5n 5n 100u 200u)
SYMATTR SpiceLine load
SYMATTR InstName I1
SYMBOL cap 1712 1760 R90
WINDOW 0 0 32 VBottom 2
WINDOW 3 32 32 VTop 2
SYMATTR InstName C7
SYMATTR Value 1µ
SYMBOL res 2128 1760 R90
WINDOW 0 0 56 VBottom 2
WINDOW 3 32 56 VTop 2
SYMATTR InstName R5
SYMATTR Value 100K
SYMBOL LTC3621 1872 1680 R0
SYMATTR InstName U1
TEXT 2232 1872 Left 2 !.tran 1.5m startup
TEXT 1928 1456 Bottom 2 ;LTC3621 - 17V, 1A Synchronous Step-Down Regulator with 3.5µA Quiescent Current\n17V, 1A Monolithic Synchronous Buck Regulator\nInput: 2.7V to 17V     Output: 1.2V @ 1A, Fsw = 1MHz
TEXT 1352 1888 Left 2 ;Note:\n  If the simulation model is not found please update with the "Sync Release" command from the "Tools" menu.\n  It remains the customer's responsibility to verify proper and reliable operation in the actual application.\n  Component substitution and printed circuit board layout may significantly affect circuit performance or reliability\n  Contact your local sales representative for assistance. This circuit is distributed to customers only for use with LTC parts\n  Copyright © 2014 Linear Technology Inc. All rights reserved.
