Version 4
SHEET 1 2956 820
WIRE 144 -112 -32 -112
WIRE 160 -112 144 -112
WIRE 400 -112 240 -112
WIRE -32 -80 -32 -112
WIRE 400 -80 400 -112
WIRE 144 -48 144 -112
WIRE 240 -48 240 -112
WIRE -32 16 -32 -16
WIRE 48 16 -32 16
WIRE 400 16 400 -16
WIRE 400 16 336 16
WIRE 544 16 480 16
WIRE 672 16 544 16
WIRE 800 16 672 16
WIRE 912 16 800 16
WIRE 1008 16 912 16
WIRE 544 32 544 16
WIRE 800 32 800 16
WIRE 912 32 912 16
WIRE 1008 32 1008 16
WIRE -144 112 -256 112
WIRE -64 112 -144 112
WIRE 48 112 -64 112
WIRE 480 112 480 16
WIRE 480 112 336 112
WIRE 672 112 672 16
WIRE -256 128 -256 112
WIRE -144 128 -144 112
WIRE 544 128 544 112
WIRE 912 128 912 96
WIRE 1008 128 1008 112
WIRE -64 208 -64 112
WIRE -48 208 -64 208
WIRE 48 208 32 208
WIRE 544 208 544 192
WIRE 544 208 336 208
WIRE 672 208 672 192
WIRE 672 208 544 208
WIRE -256 224 -256 208
WIRE -144 224 -144 192
WIRE 672 224 672 208
WIRE 48 304 32 304
WIRE 464 304 336 304
WIRE 672 320 672 304
WIRE 48 400 0 400
WIRE 464 400 464 304
WIRE 464 400 336 400
WIRE 464 416 464 400
WIRE 144 480 144 464
WIRE 240 480 240 464
WIRE 464 496 464 480
WIRE 0 528 0 400
WIRE 800 528 800 112
WIRE 800 528 0 528
FLAG -144 224 0
FLAG -256 224 0
FLAG 144 480 0
FLAG 240 480 0
FLAG 912 128 0
FLAG 1008 128 0
FLAG 672 320 0
FLAG 1008 16 OUT
FLAG -256 112 IN
FLAG 464 496 0
FLAG 32 304 0
SYMBOL LTC3129 192 208 R0
SYMATTR InstName U1
SYMBOL res 656 96 R0
SYMATTR Value 2Meg
SYMATTR InstName R1
SYMATTR SpiceLine tol=1
SYMBOL res 656 208 R0
SYMATTR InstName R2
SYMATTR Value 619K
SYMBOL res 528 16 R0
SYMATTR InstName R3
SYMATTR Value 2.21K
SYMBOL res 784 16 R0
SYMATTR InstName R4
SYMATTR Value 2Meg
SYMBOL cap -160 128 R0
SYMATTR InstName C1
SYMATTR Value 22µ
SYMATTR SpiceLine V=25 Rser=.005
SYMBOL cap 896 32 R0
SYMATTR InstName C2
SYMATTR Value 22µ
SYMATTR SpiceLine V=10 Irms=8 Rser=.005
SYMBOL cap -48 -80 R0
SYMATTR InstName C3
SYMATTR Value 22n
SYMATTR SpiceLine V=50
SYMBOL cap 384 -80 R0
SYMATTR InstName C4
SYMATTR Value 22n
SYMATTR SpiceLine V=50
SYMBOL cap 528 128 R0
SYMATTR InstName C5
SYMATTR Value 33p
SYMBOL voltage -256 112 R0
WINDOW 123 24 138 Left 2
WINDOW 39 24 117 Left 2
SYMATTR Value 12V
SYMATTR InstName V1
SYMBOL ind 144 -96 R270
WINDOW 0 32 56 VTop 2
WINDOW 3 5 56 VBottom 2
SYMATTR InstName L1
SYMATTR Value 10µ
SYMATTR SpiceLine Ipk=.59 Rser=.301
SYMBOL cap 448 416 R0
SYMATTR InstName C6
SYMATTR Value 2.2µ
SYMATTR SpiceLine V=10 Rser=.005
SYMBOL res 992 16 R0
SYMATTR InstName Rload
SYMATTR Value 25
SYMBOL res -64 224 R270
WINDOW 0 32 56 VTop 2
WINDOW 3 0 56 VBottom 2
SYMATTR InstName R6
SYMATTR Value 2Meg
TEXT 856 512 Left 2 !.tran 3m
TEXT -272 536 Left 2 ;Notes: \n  If the simulation model is not found please update with the "Sync Release" command from the "Tools" menu.\n  It remains the customer's responsibility to verify proper and reliable operation in the actual application.\n  Component substitution and printed circuit board layout may significantly affect circuit performance or reliability.\n  Contact your local sales representative for assistance. This circuit is distributed to customers only for use with LTC parts.\n  Copyright © 2015 Linear Technology Inc.  All rights reserved.
TEXT 232 -168 Bottom 2 ;LTC3129 - 15V, 200mA Synchronous Buck-Boost DC/DC Converter with 1.3µA Quiescent Current\nµPower, Synchronous Buck-Boost\nInput: 2.42V to 15V     Output: 5V @ 200mA for Vin > Vout
