Version 4
SHEET 1 2888 1056
WIRE -320 -352 -432 -352
WIRE 112 -352 -320 -352
WIRE 592 -352 112 -352
WIRE -432 -336 -432 -352
WIRE -320 -336 -320 -352
WIRE -192 -288 -208 -288
WIRE -96 -288 -128 -288
WIRE -48 -288 -96 -288
WIRE 208 -288 -48 -288
WIRE 448 -288 208 -288
WIRE 448 -272 448 -288
WIRE 112 -256 112 -352
WIRE 208 -256 208 -288
WIRE -432 -240 -432 -256
WIRE -320 -240 -320 -272
WIRE -48 -192 -48 -288
WIRE 32 -192 16 -192
WIRE 448 -192 448 -208
WIRE 448 -192 384 -192
WIRE 448 -176 448 -192
WIRE 592 -176 592 -352
WIRE -48 -96 -48 -112
WIRE 32 -96 -48 -96
WIRE 544 -96 384 -96
WIRE -96 0 -96 -288
WIRE 32 0 16 0
WIRE 448 0 448 -112
WIRE 448 0 384 0
WIRE 592 0 592 -80
WIRE 592 0 448 0
WIRE 784 0 592 0
WIRE 816 0 784 0
WIRE 928 0 896 0
WIRE 976 0 928 0
WIRE 1104 0 976 0
WIRE 1232 0 1104 0
WIRE 592 16 592 0
WIRE 976 16 976 0
WIRE 1104 16 1104 0
WIRE 1232 16 1232 0
WIRE 1488 32 1280 32
WIRE 1584 32 1568 32
WIRE -192 96 -208 96
WIRE -96 96 -96 80
WIRE -96 96 -112 96
WIRE 32 96 -96 96
WIRE 544 96 384 96
WIRE 976 112 976 80
WIRE 1104 112 1104 80
WIRE 1232 112 1232 96
WIRE 592 128 592 112
WIRE -64 192 -80 192
WIRE 32 192 16 192
WIRE 448 192 384 192
WIRE 576 192 448 192
WIRE 784 192 784 0
WIRE 784 192 656 192
WIRE 448 208 448 192
WIRE -48 288 -80 288
WIRE 32 288 16 288
WIRE 448 288 448 272
WIRE 448 288 384 288
WIRE 928 288 928 0
WIRE 928 288 448 288
WIRE 448 304 448 288
WIRE -144 384 -160 384
WIRE 32 384 -80 384
WIRE 448 384 448 368
WIRE 448 384 384 384
WIRE 576 384 448 384
WIRE 784 384 784 192
WIRE 784 384 656 384
WIRE 32 480 16 480
WIRE 928 480 928 288
WIRE 928 480 384 480
WIRE 32 576 16 576
WIRE 400 576 384 576
WIRE 32 672 16 672
WIRE 400 672 384 672
WIRE 496 672 480 672
WIRE 512 672 496 672
WIRE 608 672 592 672
WIRE 144 752 144 736
WIRE 272 752 272 736
WIRE 496 752 496 672
WIRE 496 752 272 752
FLAG 144 752 0
FLAG -208 -288 0
FLAG -432 -240 0
FLAG -80 192 0
FLAG -160 384 0
FLAG -80 288 0
FLAG 16 672 0
FLAG 592 128 0
FLAG 400 576 0
FLAG 608 672 0
FLAG 1232 112 0
FLAG 1232 0 OUT
FLAG -432 -352 IN
FLAG -320 -240 0
FLAG -208 96 0
FLAG 16 0 0
FLAG 1104 112 0
FLAG 976 112 0
FLAG 1280 80 0
FLAG 1584 32 0
SYMBOL PowerProducts\\LTC3866 208 240 R0
SYMATTR InstName U1
SYMBOL voltage -432 -352 R0
SYMATTR InstName V1
SYMATTR Value 12
SYMBOL cap -192 -272 R270
WINDOW 0 32 32 VTop 2
WINDOW 3 0 32 VBottom 2
SYMATTR InstName C1
SYMATTR Value 4.7µ
SYMBOL res 32 176 R90
WINDOW 0 0 56 VBottom 2
WINDOW 3 32 56 VTop 2
SYMATTR InstName R1
SYMATTR Value 100K
SYMBOL cap -80 400 M270
WINDOW 0 32 32 VTop 2
WINDOW 3 0 32 VBottom 2
WINDOW 39 -21 32 VBottom 2
SYMATTR InstName C2
SYMATTR Value 1500p
SYMATTR SpiceLine Rser=10K Cpar=220p
SYMBOL cap 16 304 M270
WINDOW 0 32 32 VTop 2
WINDOW 3 0 32 VBottom 2
SYMATTR InstName C3
SYMATTR Value 0.001µ
SYMBOL schottky 432 -272 R0
SYMATTR InstName D1
SYMATTR Value CMDSH2-3
SYMATTR Description Diode
SYMATTR Type diode
SYMBOL cap 432 -176 R0
SYMATTR InstName C4
SYMATTR Value .1µ
SYMBOL nmos 544 -176 R0
SYMATTR InstName Q1
SYMATTR Value BSC050NE2LS
SYMBOL nmos 544 16 R0
SYMATTR InstName Q2
SYMATTR Value BSC010NE2LS
SYMBOL ind 800 16 R270
WINDOW 0 32 56 VTop 2
WINDOW 3 5 56 VBottom 2
SYMATTR InstName L1
SYMATTR Value .33µ
SYMATTR SpiceLine Rser=.32m
SYMBOL res 672 176 R90
WINDOW 0 0 56 VBottom 2
WINDOW 3 32 56 VTop 2
SYMATTR InstName R2
SYMATTR Value 4.64K
SYMBOL res 672 368 R90
WINDOW 0 0 56 VBottom 2
WINDOW 3 32 56 VTop 2
SYMATTR InstName R3
SYMATTR Value 931
SYMBOL cap 432 208 R0
SYMATTR InstName C5
SYMATTR Value 220n
SYMBOL cap 432 304 R0
SYMATTR InstName C6
SYMATTR Value 220n
SYMBOL res 384 688 R270
WINDOW 0 32 56 VTop 2
WINDOW 3 0 56 VBottom 2
SYMATTR InstName R4
SYMATTR Value 30.1K
SYMBOL res 496 688 R270
WINDOW 0 32 56 VTop 2
WINDOW 3 0 56 VBottom 2
SYMATTR InstName R5
SYMATTR Value 20K
SYMBOL cap -336 -336 R0
WINDOW 3 37 32 Left 2
WINDOW 39 26 55 Left 2
SYMATTR Value 10µ
SYMATTR SpiceLine x2
SYMATTR InstName C7
SYMBOL res -64 -208 R0
SYMATTR InstName R6
SYMATTR Value 100k
SYMBOL res -112 -16 R0
SYMATTR InstName R7
SYMATTR Value 3.01K
SYMBOL res -96 80 R90
WINDOW 0 0 56 VBottom 2
WINDOW 3 32 56 VTop 2
SYMATTR InstName R8
SYMATTR Value 1K
SYMBOL cap 960 16 R0
WINDOW 3 37 33 Left 2
WINDOW 40 24 59 Left 2
SYMATTR Value 100µ
SYMATTR SpiceLine2 x2
SYMATTR InstName C8
SYMATTR SpiceLine Rser=0.002
SYMBOL cap 1088 16 R0
WINDOW 3 38 32 Left 2
WINDOW 40 24 57 Left 2
SYMATTR Value 330µ
SYMATTR SpiceLine2 x2
SYMATTR InstName C9
SYMATTR SpiceLine Rser=0.009
SYMBOL voltage 1472 32 R270
WINDOW 0 32 56 VTop 2
WINDOW 3 -32 56 VBottom 2
WINDOW 123 -74 56 VBottom 2
WINDOW 39 -53 56 VBottom 2
SYMATTR InstName V2
SYMATTR Value PULSE(0 1 .7m 1u 1u .2m .4m)
SYMBOL sw 1232 112 R180
WINDOW 0 -29 103 Right 2
WINDOW 3 -31 3 Right 2
SYMATTR InstName Load
SYMATTR Value load
TEXT 704 712 Left 2 !.tran 1m startup
TEXT 384 -368 Bottom 2 ;LTC3866 - Current Mode Synchronous Controller for Sub Milliohm DCR Sensing\nHigh Efficiency, 1.5V/30A Step-Down Converter with Very Low DCR Sensing\nInput: 4.5V to 20V     Output: 1.5V @ 30A, Fsw = 400kHz
TEXT -376 768 Left 2 ;Note:\n  Small value are used for TRACK/SS capacitors to reduce simulation time. Typical value will vary from 10nF to 100nF.\n  More output capacitors may be needed to meet load step and output voltage requirements.\n  If the simulation model is not found please update with the "Sync Release" command from the "Tools" menu.\n  It remains the customer's responsibility to verify proper and reliable operation in the actual application.\n  Component substitution and printed circuit board layout may significantly affect circuit performance or reliability\n  Contact your local sales representative for assistance. This circuit is distributed to customers only for use with LTC parts\n  Copyright © 2012 Linear Technology Inc. All rights reserved.
TEXT 1152 200 Left 2 !.model LOAD SW(Ron=.05 Roff=.1 Vt=.5 Vh=-.4)
