Version 4
SHEET 1 5868 2084
WIRE 1408 1264 1216 1264
WIRE 1520 1264 1408 1264
WIRE 1648 1264 1520 1264
WIRE 1776 1264 1648 1264
WIRE 1904 1264 1776 1264
WIRE 1216 1280 1216 1264
WIRE 1408 1280 1408 1264
WIRE 1904 1280 1904 1264
WIRE 1648 1296 1648 1264
WIRE 1776 1296 1776 1264
WIRE 1216 1376 1216 1360
WIRE 1408 1376 1408 1344
WIRE 1520 1376 1520 1264
WIRE 1552 1376 1520 1376
WIRE 1968 1376 1872 1376
WIRE 2080 1376 2048 1376
WIRE 2176 1376 2080 1376
WIRE 2272 1376 2176 1376
WIRE 2368 1376 2272 1376
WIRE 2080 1392 2080 1376
WIRE 2176 1392 2176 1376
WIRE 2272 1392 2272 1376
WIRE 2368 1392 2368 1376
WIRE 1248 1456 1200 1456
WIRE 1360 1456 1328 1456
WIRE 1552 1456 1360 1456
WIRE 1952 1456 1872 1456
WIRE 1200 1472 1200 1456
WIRE 1360 1472 1360 1456
WIRE 1952 1488 1952 1456
WIRE 2080 1488 2080 1472
WIRE 2080 1488 1952 1488
WIRE 2176 1488 2176 1456
WIRE 2176 1488 2080 1488
WIRE 2272 1488 2272 1456
WIRE 2368 1488 2368 1472
WIRE 2080 1504 2080 1488
WIRE 1456 1536 1440 1536
WIRE 1552 1536 1536 1536
WIRE 1904 1536 1904 1360
WIRE 1904 1536 1872 1536
WIRE 1200 1552 1200 1536
WIRE 1360 1552 1360 1536
WIRE 2080 1600 2080 1584
WIRE 1648 1632 1648 1616
WIRE 1776 1632 1776 1616
FLAG 1776 1632 0
FLAG 1648 1632 0
FLAG 1216 1376 0
FLAG 1440 1536 0
FLAG 2368 1488 0
FLAG 2080 1600 0
FLAG 2272 1488 0
FLAG 1200 1552 0
FLAG 2368 1376 OUT
FLAG 1360 1552 0
FLAG 1408 1376 0
FLAG 1216 1264 IN
SYMBOL ind 1952 1392 R270
WINDOW 0 32 56 VTop 0
WINDOW 3 5 56 VBottom 0
SYMATTR InstName L1
SYMATTR Value 2.2µ
SYMATTR SpiceLine Ipk=2.3 Rser=0.06 Rpar=55000 Cpar=1.8p mfg="Coilcraft" pn="DO1608P-222"
SYMBOL RES 2064 1376 R0
SYMATTR InstName R1
SYMATTR Value 20K
SYMBOL VOLTAGE 1216 1264 R0
WINDOW 123 0 0 Left 0
WINDOW 39 24 132 Left 0
SYMATTR InstName V1
SYMATTR Value 3.3
SYMBOL res 2064 1488 R0
SYMATTR InstName R2
SYMATTR Value 80.6K
SYMBOL res 1552 1520 R90
WINDOW 0 0 56 VBottom 0
WINDOW 3 32 56 VTop 0
SYMATTR InstName R3
SYMATTR Value 324K
SYMBOL res 1344 1440 R90
WINDOW 0 0 56 VBottom 0
WINDOW 3 32 56 VTop 0
SYMATTR InstName R4
SYMATTR Value 20K
SYMBOL cap 1184 1472 R0
SYMATTR InstName C1
SYMATTR Value 220p
SYMBOL res 1888 1264 R0
SYMATTR InstName R5
SYMATTR Value 10K
SYMBOL cap 2160 1392 R0
SYMATTR InstName C2
SYMATTR Value 22p
SYMBOL cap 1344 1472 R0
SYMATTR InstName C3
SYMATTR Value 10p
SYMBOL cap 1392 1280 R0
SYMATTR SpiceLine V=6.3 Irms=0 Rser=0.0008 MTBF=0 Lser=0 mfg="TDK" pn="C3225X5R0J226M" type="X5R" ppPkg=1
SYMATTR SpiceLine2 x1
SYMATTR InstName C4
SYMATTR Value 22µ
SYMBOL cap 2256 1392 R0
SYMATTR SpiceLine V=6.3 Irms=0 Rser=0.0008 MTBF=0 Lser=0 mfg="TDK" pn="C3225X5R0J226M" type="X5R" ppPkg=1
SYMATTR SpiceLine2 x1
SYMATTR InstName C5
SYMATTR Value 22µ
SYMBOL PowerProducts\\LTC3411A 1712 1456 R0
SYMATTR InstName U1
SYMBOL res 2352 1376 R0
SYMATTR InstName Rload
SYMATTR Value 1
TEXT 2248 1616 Left 0 !.tran 2m startup
TEXT 1760 1232 Bottom 0 ;LTC3411A - 1.25A, 4MHz, Synchronous Step-Down DC/DC Converter\nInput: 3.3V      Output: 1.0V @ 1A
TEXT 1096 1656 Left 0 ;Note:\n  If the simulation model is not found please update with the "Sync Release" command from the "Tools" menu.\n  It remains the customer's responsibility to verify proper and reliable operation in the actual application.\n  Component substitution and printed circuit board layout may significantly affect circuit performance or reliability.\n  Contact your local sales representative for assistance. This circuit is distributed to customers only for use with LTC parts.\n  Copyright © 2010 Linear Technology Inc. All rights reserved.
