Version 4
SHEET 1 2664 680
WIRE 784 -464 672 -464
WIRE 864 -464 784 -464
WIRE 944 -464 864 -464
WIRE 1040 -464 944 -464
WIRE 1168 -464 1040 -464
WIRE 1248 -464 1168 -464
WIRE 1328 -464 1248 -464
WIRE 1456 -464 1328 -464
WIRE 1520 -464 1456 -464
WIRE 672 -448 672 -464
WIRE 784 -448 784 -464
WIRE 864 -448 864 -464
WIRE 1168 -432 1168 -464
WIRE 1248 -432 1248 -464
WIRE 1328 -432 1328 -464
WIRE 944 -400 944 -464
WIRE 1520 -384 1520 -464
WIRE 1040 -368 1040 -464
WIRE 1072 -368 1040 -368
WIRE 1456 -368 1456 -464
WIRE 1456 -368 1424 -368
WIRE 672 -352 672 -368
WIRE 784 -352 784 -384
WIRE 864 -352 864 -384
WIRE 944 -272 944 -320
WIRE 1072 -272 944 -272
WIRE 1520 -272 1520 -304
WIRE 1520 -272 1424 -272
WIRE 656 -176 528 -176
WIRE 720 -176 656 -176
WIRE 768 -176 720 -176
WIRE 848 -176 768 -176
WIRE 912 -176 848 -176
WIRE 1072 -176 992 -176
WIRE 1488 -176 1424 -176
WIRE 1584 -176 1568 -176
WIRE 1648 -176 1584 -176
WIRE 1744 -176 1648 -176
WIRE 528 -160 528 -176
WIRE 656 -160 656 -176
WIRE 768 -160 768 -176
WIRE 1648 -160 1648 -176
WIRE 1744 -160 1744 -176
WIRE 848 -80 848 -96
WIRE 1072 -80 848 -80
WIRE 1584 -80 1584 -176
WIRE 1584 -80 1424 -80
WIRE 528 -64 528 -80
WIRE 656 -64 656 -96
WIRE 768 -64 768 -96
WIRE 848 -64 848 -80
WIRE 1648 -64 1648 -96
WIRE 1744 -64 1744 -80
WIRE 1040 16 1040 -368
WIRE 1072 16 1040 16
WIRE 1456 16 1456 -368
WIRE 1456 16 1424 16
WIRE 848 32 848 16
WIRE 1040 112 1040 16
WIRE 1072 112 1040 112
WIRE 1456 112 1456 16
WIRE 1456 112 1424 112
WIRE 720 208 720 -176
WIRE 1072 208 720 208
WIRE 1472 208 1424 208
WIRE 1008 304 928 304
WIRE 1072 304 1008 304
WIRE 1472 304 1424 304
WIRE 928 320 928 304
WIRE 1008 320 1008 304
WIRE 1472 320 1472 304
WIRE 1184 400 1184 368
WIRE 1312 400 1312 368
WIRE 928 416 928 400
WIRE 1008 416 1008 384
WIRE 1472 416 1472 400
FLAG 1184 400 0
FLAG 1312 400 0
FLAG 672 -352 0
FLAG 1648 -64 0
FLAG 1744 -64 0
FLAG 1744 -176 VTT
FLAG 848 32 0
FLAG 656 -64 0
FLAG 528 -64 0
FLAG 528 -176 VDDQ
FLAG 672 -464 IN
FLAG 1008 416 0
FLAG 1472 416 0
FLAG 784 -352 0
FLAG 864 -352 0
FLAG 1472 208 0
FLAG 928 416 0
FLAG 768 -64 0
FLAG 928 304 VTTR
SYMBOL voltage 672 -464 R0
WINDOW 3 27 90 Left 2
WINDOW 123 0 0 Left 2
WINDOW 39 0 0 Left 2
SYMATTR Value 3.3
SYMATTR InstName V1
SYMBOL ind 1472 -160 R270
WINDOW 0 32 56 VTop 2
WINDOW 3 5 56 VBottom 2
SYMATTR InstName L1
SYMATTR Value 1µ
SYMATTR SpiceLine Rser=11m
SYMBOL res 832 -192 R0
SYMATTR InstName R1
SYMATTR Value 422K
SYMBOL res 832 -80 R0
SYMATTR InstName R2
SYMATTR Value 210K
SYMBOL cap 1632 -160 R0
SYMATTR InstName C1
SYMATTR Value 100µ
SYMBOL res 1728 -176 R0
SYMATTR InstName Rload2
SYMATTR Value .3
SYMBOL ind 1008 -160 M270
WINDOW 0 32 56 VTop 2
WINDOW 3 5 56 VBottom 2
SYMATTR InstName L2
SYMATTR Value 1µ
SYMATTR SpiceLine Rser=11m
SYMBOL cap 640 -160 R0
SYMATTR InstName C2
SYMATTR Value 47µ
SYMBOL res 512 -176 R0
SYMATTR InstName Rload1
SYMATTR Value .6
SYMBOL PowerProducts\\LTC3618 1248 -32 R0
SYMATTR InstName U1
SYMBOL cap 992 320 R0
SYMATTR InstName C3
SYMATTR Value .1µ
SYMBOL res 1456 304 R0
SYMATTR InstName R5
SYMATTR Value 392K
SYMBOL cap 848 -448 R0
SYMATTR InstName C4
SYMATTR Value 47µ
SYMBOL cap 768 -448 R0
SYMATTR InstName C5
SYMATTR Value 47µ
SYMBOL res 1504 -400 R0
SYMATTR InstName R3
SYMATTR Value 100K
SYMBOL res 928 -416 R0
SYMATTR InstName R4
SYMATTR Value 100K
SYMBOL res 912 304 R0
SYMATTR InstName R6
SYMATTR Value 1K
SYMBOL cap 752 -160 R0
SYMATTR InstName C6
SYMATTR Value 20p
TEXT 1592 416 Left 2 !.tran 1.5m startup
TEXT 656 -176 Bottom 2 ;1.8V
TEXT 1648 -176 Bottom 2 ;900mV
TEXT 1536 312 Left 2 ;f = 1MHz
TEXT 1512 24 Left 2 ;Internal Compensation\nInternal Soft-Start\nForced Continuous Mode\n180 Out of Phase
TEXT 1568 -224 Left 2 ;VTT = VTTR =  VDDQin/2
TEXT 1008 304 Bottom 2 ;900mV
TEXT 776 336 Left 2 ;10mA max
TEXT 1248 -480 Bottom 2 ;LTC3618 - Dual ±3A Monolithic Synchronous Step-Down Converter For DDR Termination\nInput: 2.25V to 5.5V     Outputs: VDDQ @ ±3A, VTTR @ ±10mA, VTT @ ±3A
TEXT 656 448 Left 2 ;Note:\n  If the simulation model is not found please update with the "Sync Release" command from the "Tools" menu.\n  It remains the customer's responsibility to verify proper and reliable operation in the actual application.\n  Component substitution and printed circuit board layout may significantly affect circuit performance or reliability.\n  Contact your local sales representative for assistance. This circuit is distributed to customers only for use with LTC parts.\n  Copyright © 2011 Linear Technology Inc. All rights reserved.
