Version 4
SHEET 1 1352 680
WIRE -32 112 -112 112
WIRE 48 112 -32 112
WIRE 80 112 48 112
WIRE 192 112 160 112
WIRE -112 128 -112 112
WIRE -32 144 -32 112
WIRE 192 160 192 112
WIRE 48 208 48 112
WIRE 80 208 48 208
WIRE 336 208 304 208
WIRE 448 208 336 208
WIRE 544 208 448 208
WIRE -112 224 -112 208
WIRE -32 224 -32 208
WIRE 336 224 336 208
WIRE 448 224 448 208
WIRE 544 224 544 208
WIRE 48 320 48 208
WIRE 80 320 48 320
WIRE 336 320 336 304
WIRE 336 320 304 320
WIRE 448 320 448 288
WIRE 544 320 544 304
WIRE 336 336 336 320
WIRE 192 384 192 368
WIRE 336 432 336 416
FLAG 192 384 0
FLAG 336 432 0
FLAG -112 224 0
FLAG 448 320 0
FLAG 544 320 0
FLAG -32 224 0
FLAG -112 112 IN
FLAG 544 208 OUT
SYMBOL PowerProducts\\LTC3427 192 256 R0
SYMATTR InstName U1
SYMBOL ind 64 128 R270
WINDOW 0 32 56 VTop 2
WINDOW 3 5 56 VBottom 2
SYMATTR InstName L1
SYMATTR Value 6.8µ
SYMBOL res 320 208 R0
SYMATTR InstName R1
SYMATTR Value 1Meg
SYMBOL res 320 320 R0
SYMATTR InstName R2
SYMATTR Value 604K
SYMBOL cap 432 224 R0
SYMATTR InstName C3
SYMATTR Value 6.8µ
SYMATTR SpiceLine Rser=0.003
SYMBOL voltage -112 112 R0
SYMATTR InstName V1
SYMATTR Value 2
SYMBOL res 528 208 R0
SYMATTR InstName Rload
SYMATTR Value 18
SYMBOL cap -48 144 R0
SYMATTR InstName C1
SYMATTR Value 2.2µ
TEXT 448 424 Left 2 !.tran 1m startup
TEXT -304 440 Left 2 ;Note:\n  If the simulation model is not found please update with the "Sync Release" command from the "Tools" menu.\n  It remains the customer's responsibility to verify proper and reliable operation in the actual application.\n  Component substitution and printed circuit board layout may significantly affect circuit performance or reliability.\n  Contact your local sales representative for assistance. This circuit is distributed to customers only for use with LTC parts.\n  Copyright © 2012 Linear Technology Inc. All rights reserved.
TEXT 200 72 Bottom 2 ;LTC3427 - 500mA, 1.25MHz Synchronous Step-Up DC/DC Converter\n2-Cell Alkaline to 3.3V Synchronous Boost Converter\nInput: 1.8V to 3.6V       Output: 3.3V @ 180mA
