Version 4
SHEET 1 4732 1460
WIRE 224 -112 -224 -112
WIRE 240 -112 224 -112
WIRE -736 -80 -864 -80
WIRE -528 -80 -672 -80
WIRE -384 -80 -528 -80
WIRE -304 -80 -384 -80
WIRE -176 -80 -304 -80
WIRE -48 -80 -176 -80
WIRE 112 -80 -48 -80
WIRE 624 -80 336 -80
WIRE -864 -64 -864 -80
WIRE -528 -64 -528 -80
WIRE -384 -64 -384 -80
WIRE -304 -64 -304 -80
WIRE -176 -64 -176 -80
WIRE 112 -48 112 -80
WIRE 224 -48 224 -112
WIRE 336 -48 336 -80
WIRE 16 16 -80 16
WIRE 624 16 624 -80
WIRE 624 16 432 16
WIRE -864 32 -864 16
WIRE -528 32 -528 16
WIRE -384 32 -384 0
WIRE -304 32 -304 0
WIRE -176 32 -176 16
WIRE -80 32 -80 16
WIRE -80 32 -176 32
WIRE -176 48 -176 32
WIRE -48 112 -48 -80
WIRE 16 112 -48 112
WIRE 464 112 432 112
WIRE 464 128 464 112
WIRE -176 144 -176 128
WIRE -224 208 -224 -112
WIRE -80 208 -224 208
WIRE 16 208 0 208
WIRE 464 208 464 192
WIRE 464 208 432 208
WIRE 512 208 464 208
WIRE 624 208 624 16
WIRE 624 208 592 208
WIRE 736 208 624 208
WIRE 816 208 736 208
WIRE 624 224 624 208
WIRE 736 224 736 208
WIRE 816 224 816 208
WIRE -80 304 -96 304
WIRE 16 304 0 304
WIRE 528 304 432 304
WIRE 736 304 736 288
WIRE 816 304 816 288
WIRE 528 320 528 304
WIRE 624 320 624 304
WIRE 624 320 528 320
WIRE 624 336 624 320
WIRE 16 400 0 400
WIRE 464 400 432 400
WIRE 560 400 464 400
WIRE 464 416 464 400
WIRE 560 416 560 400
WIRE 624 432 624 416
WIRE 96 480 96 464
WIRE 352 480 352 464
WIRE -224 512 -224 208
WIRE 176 512 176 464
WIRE 176 512 -224 512
WIRE 272 512 272 464
WIRE 368 512 272 512
WIRE 464 512 464 496
WIRE 560 512 560 480
WIRE 272 528 272 512
WIRE 368 528 368 512
WIRE 272 624 272 608
WIRE 368 624 368 592
FLAG 96 480 0
FLAG 368 624 0
FLAG -96 304 0
FLAG -864 32 0
FLAG 304 -112 0
FLAG 352 480 0
FLAG 464 512 0
FLAG 560 512 0
FLAG 816 304 0
FLAG 816 208 OUT
FLAG -176 144 0
FLAG -304 32 0
FLAG 624 432 0
FLAG -528 32 0
FLAG -384 32 0
FLAG 736 304 0
FLAG -864 -80 IN
FLAG 272 624 0
FLAG -528 -80 Hold-Up
SYMBOL PowerProducts\\LTC3649 224 208 R0
SYMATTR InstName U1
SYMBOL res 256 512 R0
SYMATTR InstName R1
SYMATTR Value 100K
SYMBOL cap 352 528 R0
SYMATTR InstName C1
SYMATTR Value 1n
SYMBOL res 16 288 R90
WINDOW 0 0 56 VBottom 2
WINDOW 3 32 56 VTop 2
SYMATTR InstName R2
SYMATTR Value 200K
SYMBOL VOLTAGE -864 -80 R0
WINDOW 123 24 124 Left 2
SYMATTR Value2 1.2m 12 +0.01m 0)
SYMATTR Value PWL(0 0 20u 12
SYMATTR InstName V1
SYMBOL cap 304 -128 R90
WINDOW 0 0 32 VBottom 2
WINDOW 3 32 32 VTop 2
SYMATTR InstName C2
SYMATTR Value 2.2µ
SYMATTR SpiceLine Rser=10m
SYMBOL res 448 400 R0
SYMATTR InstName R3
SYMATTR Value 10K
SYMBOL cap 544 416 R0
SYMATTR InstName C3
SYMATTR Value 10n
SYMBOL ind 496 224 R270
WINDOW 0 32 56 VTop 2
WINDOW 3 5 56 VBottom 2
SYMATTR InstName L1
SYMATTR Value 6.8µ
SYMATTR SpiceLine Rser=10m
SYMBOL cap 448 128 R0
SYMATTR InstName C4
SYMATTR Value .1µ
SYMBOL res -192 -80 R0
SYMATTR InstName R5
SYMATTR Value 511K
SYMBOL res -192 32 R0
SYMATTR InstName R6
SYMATTR Value 169K
SYMBOL schottky -736 -64 R270
WINDOW 0 32 32 VTop 2
WINDOW 3 0 32 VBottom 2
SYMATTR InstName D1
SYMATTR Value RBR5L30B
SYMATTR Description Diode
SYMATTR Type diode
SYMBOL cap -320 -64 R0
SYMATTR InstName C6
SYMATTR Value 4.7µ
SYMATTR SpiceLine Rser=2m
SYMBOL res -96 224 R270
WINDOW 0 32 56 VTop 2
WINDOW 3 0 56 VBottom 2
SYMATTR InstName R11
SYMATTR Value 100K
SYMBOL res 608 208 R0
SYMATTR InstName R10
SYMATTR Value 1Meg
SYMBOL res 608 320 R0
SYMATTR InstName R12
SYMATTR Value 137K
SYMBOL res -544 -80 R0
SYMATTR InstName Rload
SYMATTR Value 24
SYMBOL polcap -400 -64 R0
SYMATTR InstName C7
SYMATTR Value 47µ
SYMATTR SpiceLine Rser=30m
SYMBOL cap 720 224 R0
SYMATTR InstName C8
SYMATTR Value 10µ
SYMATTR SpiceLine Rser=2m
SYMBOL polcap 800 224 R0
SYMATTR InstName Cstorage
SYMATTR Value 560µ
SYMATTR SpiceLine Rser=20m
TEXT 592 576 Left 2 !.tran 5m
TEXT -512 104 Top 2 ;Critical System in Need of \nExtended Hold-Up Time
TEXT -680 616 Left 2 ;Notes:\nFloat Pin Mode/Sync to initiate boost mode feature.\nIf the simulation model is not found please update with the "Sync Release" command from the "Tools" menu.\nIt remains the customer's responsibility to verify proper and reliable operation in the actual application.\nComponent substitution and printed circuit board layout may significantly affect circuit performance or reliability.\nContact your local sales representative for assistance. This circuit is distributed to customers only for use with LTC parts.\nCopyright © 2016 Linear Technology Inc. All rights reserved.
TEXT 0 -160 Bottom 2 ;LTC3649 - 60V, 4A Synchronous Step-Down Regulator with Rail-to-Rail Programmable Output\nHold-Up Circuit Using a Buck Regulator with Vin Boost Capabilities\nInput: 5.5V to 60V     Output: 5V @ 4A Buck Mode, 8V Hold-Up in Boost Mode
CIRCLE Normal -432 96 -608 -144 2
