Version 4
SHEET 1 2320 776
WIRE 64 -48 -112 -48
WIRE 176 -48 64 -48
WIRE 272 -48 256 -48
WIRE -112 -32 -112 -48
WIRE 176 0 176 -48
WIRE 272 0 272 -48
WIRE -112 64 -112 48
WIRE 64 64 64 -48
WIRE 80 64 64 64
WIRE 416 64 368 64
WIRE 592 64 416 64
WIRE 736 64 592 64
WIRE 864 64 736 64
WIRE 416 80 416 64
WIRE 864 80 864 64
WIRE 736 96 736 64
WIRE -16 160 -32 160
WIRE 64 160 48 160
WIRE 80 160 64 160
WIRE 416 160 416 144
WIRE 416 160 368 160
WIRE 592 160 592 64
WIRE 736 176 736 160
WIRE 864 176 864 160
WIRE 64 256 64 160
WIRE 80 256 64 256
WIRE 592 256 592 240
WIRE 592 256 368 256
WIRE 592 272 592 256
WIRE -16 352 -32 352
WIRE 80 352 64 352
WIRE 384 352 368 352
WIRE 496 352 464 352
WIRE 496 368 496 352
WIRE 592 368 592 352
WIRE 176 432 176 416
WIRE 272 432 272 416
WIRE 496 448 496 432
FLAG 176 432 0
FLAG 272 432 0
FLAG -32 160 0
FLAG -112 64 0
FLAG -32 352 0
FLAG 496 448 0
FLAG 592 368 0
FLAG 736 176 0
FLAG 864 176 0
FLAG 864 64 OUT
FLAG -112 -48 IN
SYMBOL PowerProducts\\LTC3122 224 208 R0
SYMATTR InstName U1
SYMBOL voltage -112 -48 R0
SYMATTR InstName Vin
SYMATTR Value 5
SYMBOL ind 160 -32 R270
WINDOW 0 32 56 VTop 2
WINDOW 3 5 56 VBottom 2
SYMATTR InstName L1
SYMATTR Value 4.7µ
SYMATTR SpiceLine Rser=40m Rpar=15K
SYMBOL cap 48 144 R90
WINDOW 0 0 32 VBottom 2
WINDOW 3 32 32 VTop 2
SYMATTR InstName C1
SYMATTR Value 4.7µ
SYMBOL res 80 336 R90
WINDOW 0 0 56 VBottom 2
WINDOW 3 32 56 VTop 2
SYMATTR InstName R1
SYMATTR Value 57.6K
SYMBOL cap 400 80 R0
SYMATTR InstName C3
SYMATTR Value 0.1µ
SYMBOL res 576 256 R0
SYMATTR InstName R2
SYMATTR Value 113K
SYMBOL res 576 144 R0
SYMATTR InstName R3
SYMATTR Value 1020K
SYMBOL cap 720 96 R0
SYMATTR InstName C4
SYMATTR Value 22µ
SYMATTR SpiceLine Rser=0.003
SYMBOL cap 480 368 R0
SYMATTR InstName C6
SYMATTR Value 390p
SYMBOL res 368 368 R270
WINDOW 0 32 56 VTop 2
WINDOW 3 0 56 VBottom 2
SYMATTR InstName R4
SYMATTR Value 86.6K
SYMBOL res 848 64 R0
SYMATTR InstName Rload
SYMATTR Value 15
TEXT 816 400 Left 2 !.tran 12m startup
TEXT 264 -96 Bottom 2 ;LTC3122 - 15V, 2.5A Synchronous Step-Up DC/DC Converter with Output Disconnect\n5V to 12V Synchronous Boost Converter with Output Disconnect\nInput: 1.8V to 5.5V      Output: 12V @ 0.8A
TEXT -280 440 Left 2 ;Notes:\n \n  If the simulation model is not found please update with the "Sync Release" command from the "Tools" menu.\n  It remains the customer's responsibility to verify proper and reliable operation in the actual application.\n  Component substitution and printed circuit board layout may significantly affect circuit performance or reliability.\n  Contact your local sales representative for assistance. This circuit is distributed to customers only for use with LTC parts.\n  Copyright © 2013 Linear Technology Inc. All rights reserved.
