Version 4
SHEET 1 5868 2084
WIRE 1424 1296 1328 1296
WIRE 1520 1296 1424 1296
WIRE 1600 1296 1520 1296
WIRE 1712 1296 1600 1296
WIRE 1840 1296 1712 1296
WIRE 1328 1312 1328 1296
WIRE 1424 1312 1424 1296
WIRE 1712 1312 1712 1296
WIRE 1840 1312 1840 1296
WIRE 1520 1376 1520 1296
WIRE 1600 1392 1600 1296
WIRE 1616 1392 1600 1392
WIRE 1952 1392 1936 1392
WIRE 2080 1392 2032 1392
WIRE 2176 1392 2080 1392
WIRE 2288 1392 2176 1392
WIRE 2400 1392 2288 1392
WIRE 1328 1408 1328 1392
WIRE 1424 1408 1424 1376
WIRE 2080 1408 2080 1392
WIRE 2176 1408 2176 1392
WIRE 2400 1408 2400 1392
WIRE 2288 1424 2288 1392
WIRE 1520 1472 1520 1456
WIRE 1616 1472 1520 1472
WIRE 2048 1472 1936 1472
WIRE 2048 1504 2048 1472
WIRE 2080 1504 2080 1472
WIRE 2080 1504 2048 1504
WIRE 2176 1504 2176 1488
WIRE 2176 1504 2080 1504
WIRE 2288 1504 2288 1488
WIRE 2400 1504 2400 1488
WIRE 2176 1520 2176 1504
WIRE 1616 1552 1520 1552
WIRE 1952 1552 1936 1552
WIRE 2048 1552 2032 1552
WIRE 1520 1568 1520 1552
WIRE 2048 1584 2048 1552
WIRE 2176 1616 2176 1600
WIRE 1712 1648 1712 1632
WIRE 1840 1648 1840 1632
WIRE 1520 1664 1520 1648
WIRE 2048 1664 2048 1648
FLAG 1840 1648 0
FLAG 1712 1648 0
FLAG 1328 1408 0
FLAG 1520 1664 0
FLAG 2400 1504 0
FLAG 2176 1616 0
FLAG 2288 1504 0
FLAG 2048 1664 0
FLAG 2400 1392 OUT
FLAG 1424 1408 0
FLAG 1328 1296 IN
SYMBOL ind 1936 1408 R270
WINDOW 0 32 56 VTop 0
WINDOW 3 5 56 VBottom 0
SYMATTR InstName L1
SYMATTR Value 1.7µ
SYMATTR SpiceLine Ipk=2.3 Rser=0.06 Rpar=55000 Cpar=1.8p mfg="Coilcraft" pn="DO1608P-222"
SYMBOL RES 2160 1392 R0
SYMATTR InstName R1
SYMATTR Value 412K
SYMBOL VOLTAGE 1328 1296 R0
WINDOW 123 0 0 Left 0
WINDOW 39 24 132 Left 0
WINDOW 0 28 19 Left 0
WINDOW 3 25 89 Left 0
SYMATTR InstName V1
SYMATTR Value 3.3
SYMBOL res 2160 1504 R0
SYMATTR InstName R2
SYMATTR Value 332K
SYMBOL res 1504 1664 M180
WINDOW 0 36 76 Left 0
WINDOW 3 36 40 Left 0
SYMATTR InstName R3
SYMATTR Value 324K
SYMBOL res 2048 1536 R90
WINDOW 0 0 56 VBottom 0
WINDOW 3 32 56 VTop 0
SYMATTR InstName R4
SYMATTR Value 13K
SYMBOL cap 2032 1584 R0
SYMATTR InstName C1
SYMATTR Value 1000p
SYMBOL cap 2064 1408 R0
SYMATTR InstName C2
SYMATTR Value 47p
SYMBOL cap 1408 1312 R0
WINDOW 0 25 6 Left 0
WINDOW 3 25 62 Left 0
SYMATTR InstName C3
SYMATTR Value 22µ
SYMATTR SpiceLine V=6.3 Irms=0 Rser=0.0008 MTBF=0 Lser=0 mfg="TDK" pn="C3225X5R0J226M" type="X5R" ppPkg=1
SYMATTR SpiceLine2 x1
SYMBOL cap 2272 1424 R0
WINDOW 40 30 62 Left 0
WINDOW 3 37 34 Left 0
SYMATTR SpiceLine2 x2
SYMATTR Value 47µ
SYMATTR SpiceLine V=6.3 Irms=0 Rser=0.0008 MTBF=0 Lser=0 mfg="TDK" pn="C3225X5R0J226M" type="X5R" ppPkg=1
SYMATTR InstName C4
SYMBOL PowerProducts\\LTC3568 1776 1472 R0
SYMATTR InstName U1
SYMBOL res 1504 1472 M180
WINDOW 0 36 76 Left 0
WINDOW 3 36 40 Left 0
SYMATTR InstName R5
SYMATTR Value 100K
SYMBOL res 2384 1392 R0
SYMATTR InstName Rload
SYMATTR Value 1
TEXT 2248 1656 Left 0 !.tran 1.25m startup
TEXT 1896 1280 Bottom 0 ;LTC3568 - 1.8A, 4MHz, Synchronous Step-Down DC/DC Converter\nInput: 3.3V     Output: 1.8V @ 1.8A
TEXT 1232 1696 Left 0 ;Note:\n  If the simulation model is not found please update with the "Sync Release" command from the "Tools" menu.\n  It remains the customer's responsibility to verify proper and reliable operation in the actual application.\n  Component substitution and printed circuit board layout may significantly affect circuit performance or reliability\n  Contact your local sales representative for assistance. This circuit is distributed to customers only for use with LTC parts\n  Copyright © 2008 Linear Technology Inc. All rights reserved.
