Version 4
SHEET 1 3012 868
WIRE -80 -208 -208 -208
WIRE 0 -208 -80 -208
WIRE 128 -208 0 -208
WIRE 208 -208 128 -208
WIRE 288 -208 208 -208
WIRE 416 -208 288 -208
WIRE 464 -208 416 -208
WIRE -208 -192 -208 -208
WIRE -80 -192 -80 -208
WIRE 128 -192 128 -208
WIRE 208 -192 208 -208
WIRE 288 -192 288 -208
WIRE 464 -176 464 -208
WIRE 0 -128 0 -208
WIRE 32 -128 0 -128
WIRE 416 -128 416 -208
WIRE 416 -128 384 -128
WIRE -80 -112 -80 -128
WIRE -208 -96 -208 -112
WIRE 464 -96 464 -112
WIRE -304 64 -432 64
WIRE -176 64 -304 64
WIRE -112 64 -176 64
WIRE 32 64 -32 64
WIRE 400 64 384 64
WIRE 528 64 480 64
WIRE 656 64 528 64
WIRE 768 64 656 64
WIRE -432 80 -432 64
WIRE -304 80 -304 64
WIRE 656 80 656 64
WIRE 768 80 768 64
WIRE -304 160 -304 144
WIRE -176 160 -176 144
WIRE 32 160 -176 160
WIRE 528 160 528 144
WIRE 528 160 384 160
WIRE -432 176 -432 160
WIRE -176 176 -176 160
WIRE 528 176 528 160
WIRE 656 176 656 144
WIRE 768 176 768 160
WIRE 0 256 0 -128
WIRE 32 256 0 256
WIRE 416 256 384 256
WIRE -176 272 -176 256
WIRE 528 272 528 256
WIRE 0 352 0 256
WIRE 32 352 0 352
WIRE 416 352 416 256
WIRE 416 352 384 352
WIRE 0 448 0 352
WIRE 32 448 0 448
WIRE 416 448 416 352
WIRE 416 448 384 448
WIRE 0 544 0 448
WIRE 32 544 0 544
WIRE 144 624 144 608
WIRE 272 624 272 608
WIRE 0 656 0 544
WIRE 416 656 416 448
WIRE 416 656 0 656
FLAG 656 176 0
FLAG -304 160 0
FLAG -80 -112 0
FLAG 272 624 0
FLAG 144 624 0
FLAG 768 176 0
FLAG 768 64 OUT2
FLAG -208 -96 0
FLAG -208 -208 IN
FLAG 464 -96 0
FLAG -432 64 OUT1
FLAG -176 272 0
FLAG 528 272 0
FLAG -432 176 0
SYMBOL PowerProducts\\LTC3615 208 208 R0
SYMATTR InstName U1
SYMBOL ind -128 80 R270
WINDOW 0 32 56 VTop 2
WINDOW 3 5 56 VBottom 2
SYMATTR InstName L1
SYMATTR Value 0.47µ
SYMBOL ind 384 80 R270
WINDOW 0 32 56 VTop 2
WINDOW 3 5 56 VBottom 2
SYMATTR InstName L2
SYMATTR Value 0.47µ
SYMBOL res -192 48 R0
SYMATTR InstName R1
SYMATTR Value 200K
SYMBOL res 512 48 R0
SYMATTR InstName R2
SYMATTR Value 100K
SYMBOL cap 640 80 R0
SYMATTR InstName C1
SYMATTR Value 47µ
SYMBOL cap -320 80 R0
SYMATTR InstName C2
SYMATTR Value 47µ
SYMBOL cap -96 -192 R0
SYMATTR InstName C3
SYMATTR Value 47µ
SYMBOL VOLTAGE -208 -208 R0
WINDOW 3 27 94 Left 2
SYMATTR Value 3.3
SYMATTR InstName V1
SYMBOL cap 448 -176 R0
SYMATTR InstName C4
SYMATTR Value 47µ
SYMBOL res -192 160 R0
SYMATTR InstName R3
SYMATTR Value 100K
SYMBOL res 512 160 R0
SYMATTR InstName R4
SYMATTR Value 100K
SYMBOL res -448 64 R0
SYMATTR InstName Rload1
SYMATTR Value .6
SYMBOL res 752 64 R0
SYMATTR InstName Rload2
SYMATTR Value .4
TEXT 208 -224 Bottom 2 ;LTC3615 - Dual 4MHz, 3A Synchronous Step-Down DC/DC Converter\nDual 3A Synchronous Step-down Regulator\nInput: 2.25V to 5.5V     Output1: 1.8V @ 3A     Output2: 1.2V @ 3A
TEXT 648 496 Left 2 !.tran 1.25m startup
TEXT -360 648 Left 2 ;Note:\n  If the simulation model is not found please update with the "Sync Release" command from the "Tools" menu.\n  It remains the customer's responsibility to verify proper and reliable operation in the actual application.\n  Component substitution and printed circuit board layout may significantly affect circuit performance or reliability.\n  Contact your local sales representative for assistance. This circuit is distributed to customers only for use with LTC parts.\n  Copyright © 2012 Linear Technology Inc. All rights reserved.
