Version 4
SHEET 1 3336 680
WIRE 128 -368 32 -368
WIRE 208 -368 128 -368
WIRE 400 -368 208 -368
WIRE 624 -368 400 -368
WIRE 32 -352 32 -368
WIRE 128 -352 128 -368
WIRE 208 -352 208 -368
WIRE 400 -352 400 -368
WIRE 400 -272 400 -288
WIRE 32 -256 32 -272
WIRE 128 -256 128 -288
WIRE 208 -256 208 -288
WIRE 272 -208 256 -208
WIRE 624 -208 624 -368
WIRE 624 -208 528 -208
WIRE 272 -112 256 -112
WIRE 624 -112 624 -128
WIRE 624 -112 528 -112
WIRE 624 -32 624 -112
WIRE 64 -16 0 -16
WIRE 176 -16 144 -16
WIRE 272 -16 176 -16
WIRE 576 -16 528 -16
WIRE 0 0 0 -16
WIRE 176 0 176 -16
WIRE 0 80 0 64
WIRE 176 80 176 64
WIRE 272 80 256 80
WIRE 576 80 528 80
WIRE 624 80 624 64
WIRE 672 80 624 80
WIRE 800 80 752 80
WIRE 928 80 800 80
WIRE 1040 80 928 80
WIRE 1136 80 1040 80
WIRE 624 96 624 80
WIRE 800 96 800 80
WIRE 928 96 928 80
WIRE 1040 96 1040 80
WIRE 1136 96 1136 80
WIRE 160 176 128 176
WIRE 272 176 240 176
WIRE 544 176 528 176
WIRE 624 176 624 160
WIRE 1040 192 1040 160
WIRE 1136 192 1136 176
WIRE 576 208 576 80
WIRE 928 208 928 176
WIRE 928 208 576 208
WIRE 928 224 928 208
WIRE 544 240 544 176
WIRE 800 240 800 176
WIRE 800 240 544 240
WIRE 352 256 352 240
WIRE 448 256 448 240
WIRE 800 256 800 240
WIRE 928 320 928 304
WIRE 800 352 800 336
FLAG 352 256 0
FLAG 448 256 0
FLAG 128 176 0
FLAG 0 80 0
FLAG 32 -256 0
FLAG 624 176 0
FLAG 928 320 0
FLAG 1040 192 0
FLAG 1136 192 0
FLAG 32 -368 IN
FLAG 1136 80 OUT
FLAG 800 352 0
FLAG 208 -256 0
FLAG 128 -256 0
FLAG 176 80 0
SYMBOL PowerProducts\\LTC3864 400 -16 R0
SYMATTR InstName U1
SYMBOL cap -16 0 R0
SYMATTR InstName C1
SYMATTR Value 6.8n
SYMBOL voltage 32 -368 R0
SYMATTR InstName V1
SYMATTR Value 24
SYMBOL cap 384 -352 R0
SYMATTR InstName C2
SYMATTR Value .1µ
SYMBOL res 608 -224 R0
SYMATTR InstName R1
SYMATTR Value 50m
SYMBOL pmos 576 64 M180
WINDOW 0 56 73 Left 2
WINDOW 3 54 46 Left 2
SYMATTR InstName Q1
SYMATTR Value Si7113DN
SYMBOL schottky 608 160 M180
WINDOW 0 24 64 Left 2
WINDOW 3 24 0 Left 2
SYMATTR InstName D1
SYMATTR Value B560C
SYMATTR Description Diode
SYMATTR Type diode
SYMBOL ind 656 96 R270
WINDOW 0 32 56 VTop 2
WINDOW 3 5 56 VBottom 2
SYMATTR InstName L1
SYMATTR Value 47µ
SYMATTR SpiceLine Rser=20m
SYMBOL res 912 80 R0
SYMATTR InstName R2
SYMATTR Value 887K
SYMBOL res 912 208 R0
SYMATTR InstName R3
SYMATTR Value 30.1K
SYMBOL cap 1024 96 R0
SYMATTR Value 10µ
SYMATTR InstName C3
SYMATTR SpiceLine Rser=0.001
SYMBOL res 256 160 R90
WINDOW 0 0 56 VBottom 2
WINDOW 3 32 56 VTop 2
SYMATTR InstName R4
SYMATTR Value 97.6K
SYMBOL cap 160 0 R0
WINDOW 39 24 77 Left 2
SYMATTR InstName C4
SYMATTR Value 100p
SYMBOL res 784 80 R0
SYMATTR InstName R5
SYMATTR Value 768K
SYMBOL res 784 240 R0
SYMATTR InstName R6
SYMATTR Value 200K
SYMBOL polcap 112 -352 R0
SYMATTR Value 33µ
SYMATTR InstName C5
SYMATTR SpiceLine Rser=0.018
SYMATTR Description Capacitor
SYMATTR Type cap
SYMBOL res 160 -32 R90
WINDOW 0 0 56 VBottom 2
WINDOW 3 32 56 VTop 2
SYMATTR InstName R7
SYMATTR Value 30.1K
SYMBOL cap 192 -352 R0
SYMATTR InstName C6
SYMATTR Value 2.2µ
SYMBOL res 1120 80 R0
SYMATTR InstName Rload
SYMATTR Value 24
TEXT 984 336 Left 2 !.tran 2m startup
TEXT 568 -384 Bottom 2 ;LTC3864 - 60V Low Iq Step-Down DC/DC Controller with 100% Duty Cycle Capability\n24V Output Automotive Step-Down Converter\nInput: 24V to 60V     Output: 24V @ 1A, Fsw = 750KHz\nVout follows Vin when 3.5V <= Vin <= 24V
TEXT -64 360 Left 2 ;Notes:\n  If the simulation model is not found please update with the "Sync Release" command from the "Tools" menu.\n  It remains the customer's responsibility to verify proper and reliable operation in the actual application.\n  Component substitution and printed circuit board layout may significantly affect circuit performance or reliability.\n  Contact your local sales representative for assistance. This circuit is distributed to customers only for use with LTC parts.\n  Copyright © 2013 Linear Technology Inc. All rights reserved.
