Version 4
SHEET 1 1600 884
WIRE -48 208 -48 192
WIRE -48 304 -48 288
WIRE -32 368 -48 368
WIRE -32 512 -32 496
WIRE -32 608 -32 592
WIRE 16 432 -32 432
WIRE 64 496 -32 496
WIRE 64 512 64 496
WIRE 64 608 64 576
WIRE 96 192 -48 192
WIRE 96 304 96 192
WIRE 112 304 96 304
WIRE 112 368 48 368
WIRE 112 432 96 432
WIRE 112 496 64 496
WIRE 208 192 96 192
WIRE 208 240 208 192
WIRE 208 576 208 560
WIRE 240 192 208 192
WIRE 336 192 320 192
WIRE 336 240 336 192
WIRE 336 576 336 560
WIRE 448 304 432 304
WIRE 448 304 448 256
WIRE 448 432 432 432
WIRE 464 496 432 496
WIRE 464 512 464 496
WIRE 464 592 464 576
WIRE 544 256 448 256
WIRE 544 272 544 256
WIRE 544 368 432 368
WIRE 544 368 544 336
WIRE 560 432 528 432
WIRE 560 448 560 432
WIRE 560 528 560 512
WIRE 640 256 544 256
WIRE 640 272 640 256
WIRE 640 368 544 368
WIRE 640 368 640 352
WIRE 640 384 640 368
WIRE 640 480 640 464
WIRE 752 256 640 256
WIRE 752 336 752 256
WIRE 752 480 752 400
WIRE 864 256 752 256
WIRE 864 320 864 256
WIRE 864 480 864 400
FLAG 640 480 0
FLAG -48 304 0
FLAG 752 480 0
FLAG 864 480 0
FLAG 560 528 0
FLAG 464 592 0
FLAG 208 576 0
FLAG 336 576 0
FLAG 64 608 0
FLAG -32 608 0
FLAG -32 432 0
FLAG -48 368 0
FLAG 864 256 OUT
FLAG -48 192 IN
SYMBOL ind 224 208 R270
WINDOW 0 32 56 VTop 0
WINDOW 3 5 56 VBottom 0
SYMATTR InstName L1
SYMATTR Value 4.7µ
SYMBOL res 624 256 R0
SYMATTR InstName R1
SYMATTR Value 665K
SYMBOL res 624 368 R0
SYMATTR InstName R2
SYMATTR Value 215K
SYMBOL voltage -48 192 R0
WINDOW 123 0 0 Left 0
WINDOW 39 0 0 Left 0
SYMATTR InstName V1
SYMATTR Value 3.3
SYMBOL cap 736 336 R0
SYMATTR InstName C1
SYMATTR Value 22µ
SYMBOL cap 528 272 R0
SYMATTR InstName C2
SYMATTR Value 27p
SYMBOL res 544 416 R90
WINDOW 0 0 56 VBottom 0
WINDOW 3 32 56 VTop 0
SYMATTR InstName R3
SYMATTR Value 33K
SYMBOL cap 544 448 R0
SYMATTR InstName C3
SYMATTR Value 470p
SYMBOL cap 448 512 R0
SYMATTR InstName C4
SYMATTR Value .001µ
SYMBOL cap 48 512 R0
SYMATTR InstName C5
SYMATTR Value .01µ
SYMBOL res -48 496 R0
SYMATTR InstName R4
SYMATTR Value 133K
SYMBOL res 112 416 R90
WINDOW 0 0 56 VBottom 0
WINDOW 3 32 56 VTop 0
SYMATTR InstName R5
SYMATTR Value 84.5K
SYMBOL res 64 352 R90
WINDOW 0 0 56 VBottom 0
WINDOW 3 32 56 VTop 0
SYMATTR InstName R6
SYMATTR Value 200K
SYMBOL PowerProducts\\LTC3458L 272 400 R0
SYMATTR InstName U1
SYMBOL current 864 320 R0
WINDOW 123 0 0 Left 0
WINDOW 39 21 122 Left 0
SYMATTR SpiceLine load
SYMATTR Value 600m
SYMATTR InstName I1
TEXT 656 568 Left 0 !.tran .6m startup
TEXT 376 144 Bottom 0 ;LTC3458L -  Synchronous Boost Converter\nInput: 3.3V     Output: 5V @ 600mA
TEXT -200 624 Left 0 ;Note:\n  If the simulation model is not found please update with the "Sync Release" command from the "Tools" menu.\n  It remains the customer's responsibility to verify proper and reliable operation in the actual application.\n  Component substitution and printed circuit board layout may significantly affect circuit performance or reliability\n  Contact your local sales representative for assistance. This circuit is distributed to customers only for use with LTC parts\n  Copyright © 2006 Linear Technology Inc. All rights reserved.
