Version 4
SHEET 1 2312 1704
WIRE -448 -176 -560 -176
WIRE -352 -176 -448 -176
WIRE -304 -176 -352 -176
WIRE -160 -176 -304 -176
WIRE 16 -176 -160 -176
WIRE 416 -176 16 -176
WIRE -560 -160 -560 -176
WIRE -448 -160 -448 -176
WIRE 128 -128 128 -144
WIRE -560 -64 -560 -80
WIRE -448 -64 -448 -96
WIRE -112 -48 -208 -48
WIRE 128 -48 128 -64
WIRE 128 -48 -112 -48
WIRE 784 -48 240 -48
WIRE 16 -16 16 -176
WIRE 128 -16 128 -48
WIRE 240 -16 240 -48
WIRE 416 -16 416 -176
WIRE -112 64 -112 -48
WIRE -64 64 -112 64
WIRE 368 64 320 64
WIRE -160 144 -160 -176
WIRE -64 144 -160 144
WIRE 336 144 320 144
WIRE 416 144 416 80
WIRE 416 144 400 144
WIRE 480 144 416 144
WIRE 624 144 560 144
WIRE 640 144 624 144
WIRE 736 144 720 144
WIRE 784 144 784 -48
WIRE 784 144 736 144
WIRE 832 144 784 144
WIRE 944 144 832 144
WIRE 832 160 832 144
WIRE 944 160 944 144
WIRE -304 208 -304 -176
WIRE -208 224 -208 -48
WIRE -176 224 -208 224
WIRE -64 224 -96 224
WIRE 416 224 416 144
WIRE 416 224 320 224
WIRE 832 256 832 224
WIRE 944 256 944 240
WIRE -304 304 -304 288
WIRE -64 304 -304 304
WIRE 368 304 320 304
WIRE -304 320 -304 304
WIRE 416 336 416 320
WIRE -160 384 -176 384
WIRE -64 384 -80 384
WIRE 416 384 320 384
WIRE 624 384 624 144
WIRE 624 384 416 384
WIRE -304 416 -304 400
WIRE 784 448 784 144
WIRE -64 464 -80 464
WIRE 416 464 416 448
WIRE 416 464 320 464
WIRE 736 464 736 144
WIRE 736 464 416 464
WIRE 784 544 784 528
WIRE 784 544 320 544
WIRE 784 560 784 544
WIRE -64 624 -96 624
WIRE 784 656 784 640
WIRE -208 704 -208 224
WIRE -64 704 -208 704
WIRE 336 704 320 704
WIRE 432 704 416 704
WIRE -144 784 -160 784
WIRE -64 784 -80 784
WIRE 336 784 320 784
WIRE -256 864 -304 864
WIRE -144 864 -176 864
WIRE -64 864 -144 864
WIRE 352 864 320 864
WIRE -304 880 -304 864
WIRE -144 880 -144 864
WIRE -304 960 -304 944
WIRE -144 960 -144 944
WIRE 240 960 240 944
WIRE 16 992 16 944
WIRE -352 1040 -352 -176
WIRE -64 1040 -352 1040
WIRE 128 1040 128 944
WIRE 128 1040 32 1040
WIRE 144 1040 128 1040
WIRE 224 1040 208 1040
FLAG 416 336 0
FLAG 832 256 0
FLAG 944 256 0
FLAG 784 656 0
FLAG 944 144 OUT
FLAG 128 -144 0
FLAG -304 960 0
FLAG -160 784 0
FLAG -560 -64 0
FLAG -560 -176 IN
FLAG 240 960 0
FLAG -176 384 0
FLAG -80 464 0
FLAG -304 416 0
FLAG 336 784 0
FLAG 432 704 0
FLAG -64 544 0
FLAG -448 -64 0
FLAG -144 960 0
FLAG 224 1040 0
SYMBOL nmos 368 -16 R0
SYMATTR InstName Q1
SYMATTR Value BSC520N15NS3
SYMBOL ind 464 160 R270
WINDOW 0 32 56 VTop 2
WINDOW 3 5 56 VBottom 2
SYMATTR InstName L1
SYMATTR Value 33µ
SYMATTR SpiceLine Rser=11.4m
SYMBOL cap 816 160 R0
WINDOW 3 42 30 Left 2
WINDOW 123 29 51 Left 2
SYMATTR Value 150µ
SYMATTR Value2 x2
SYMATTR SpiceLine Rser=125m
SYMATTR InstName C1
SYMBOL res 768 432 R0
SYMATTR InstName R1
SYMATTR Value 140K
SYMBOL res 768 544 R0
SYMATTR InstName R2
SYMATTR Value 10K
SYMBOL cap 336 160 R270
WINDOW 0 32 32 VTop 2
WINDOW 3 0 32 VBottom 2
SYMATTR InstName C2
SYMATTR Value .1µ
SYMBOL cap 112 -128 R0
SYMATTR InstName C3
SYMATTR Value .1µ
SYMBOL cap -320 880 R0
SYMATTR InstName C4
SYMATTR Value 4700p
SYMBOL cap -80 768 R90
WINDOW 0 0 32 VBottom 2
WINDOW 3 32 32 VTop 2
SYMATTR InstName C5
SYMATTR Value .01µ
SYMBOL voltage -560 -176 R0
WINDOW 3 20 93 Left 2
WINDOW 123 0 0 Left 2
WINDOW 39 0 0 Left 2
SYMATTR Value 100
SYMATTR InstName V1
SYMBOL res 624 160 R270
WINDOW 0 32 56 VTop 2
WINDOW 3 0 56 VBottom 2
SYMATTR InstName R3
SYMATTR Value 6m
SYMBOL res -64 368 R90
WINDOW 0 0 56 VBottom 2
WINDOW 3 32 56 VTop 2
SYMATTR InstName R4
SYMATTR Value 30.1K
SYMBOL cap 400 384 R0
WINDOW 0 29 15 Left 2
SYMATTR InstName C6
SYMATTR Value 1n
SYMBOL res -80 208 R90
WINDOW 0 0 56 VBottom 2
WINDOW 3 32 56 VTop 2
SYMATTR InstName R5
SYMATTR Value 100K
SYMBOL res -320 192 R0
SYMATTR InstName R6
SYMATTR Value 191K
SYMBOL res -320 304 R0
SYMATTR InstName R7
SYMATTR Value 1.74K
SYMBOL LTC3895 128 480 R0
SYMATTR InstName U1
SYMBOL res 432 688 R90
WINDOW 0 0 56 VBottom 2
WINDOW 3 32 56 VTop 2
SYMATTR InstName R8
SYMATTR Value 80.6K
SYMBOL nmos -64 992 M90
WINDOW 0 4 48 VBottom 2
WINDOW 3 52 48 VTop 2
SYMATTR InstName Q2
SYMATTR Value Si4482DY
SYMBOL cap 208 1056 M270
WINDOW 0 32 32 VTop 2
WINDOW 3 0 32 VBottom 2
SYMATTR InstName C7
SYMATTR Value 4.7µ
SYMBOL nmos 368 224 R0
SYMATTR InstName Q3
SYMATTR Value BSC520N15NS3
SYMBOL cap -464 -160 R0
SYMATTR InstName C8
SYMATTR Value 100µ
SYMBOL res 928 144 R0
SYMATTR InstName Rload
SYMATTR Value 2.4
SYMBOL res -160 848 R90
WINDOW 0 0 56 VBottom 2
WINDOW 3 32 56 VTop 2
SYMATTR InstName R9
SYMATTR Value 10K
SYMBOL cap -160 880 R0
SYMATTR InstName C9
SYMATTR Value 100p
TEXT 608 912 Left 2 !.tran 1m startup
TEXT 128 -216 Bottom 2 ;LTC3895 - 150V Low IQ, Synchronous Step-Down DC/DC Controller\nHigh Efficiency High Voltage Buck Converter\nInput: 14V to 130V     Output: 12V @ 5.0A, Fsw = 150kHz
TEXT -432 1088 Left 2 ;Notes:\n  This device has the ability to adjust gate drive voltage from 5V to 10V with no required external boost diodes.\n  The output voltage can be set as low as 0.8V to as high as 60V, with certain modifications.\n  SS capacitors have been reduced to speed up simulation time. Typical values should be 0.1µF.\n  If the simulation model is not found please update with the "Sync Release" command from the "Tools" menu.\n  It remains the customer's responsibility to verify proper and reliable operation in the actual application.\n  Component substitution and printed circuit board layout may significantly affect circuit performance or reliability.\n  Contact your local sales representative for assistance. This circuit is distributed to customers only for use with LTC parts.\n  Copyright © 2017 Linear Technology Inc. All rights reserved.
