Version 4
SHEET 1 2676 1284
WIRE -96 -128 -320 -128
WIRE 384 -128 -96 -128
WIRE 432 -128 384 -128
WIRE 240 -112 -32 -112
WIRE 640 -112 240 -112
WIRE 688 -112 640 -112
WIRE 800 -112 688 -112
WIRE 240 -96 240 -112
WIRE 800 -96 800 -112
WIRE -32 -80 -32 -112
WIRE 688 -80 688 -112
WIRE 432 -32 432 -128
WIRE 80 0 80 -16
WIRE 240 0 240 -16
WIRE 240 0 80 0
WIRE 688 0 688 -16
WIRE 800 0 800 -16
WIRE 80 16 80 0
WIRE 240 16 240 0
WIRE -320 48 -320 -128
WIRE -96 48 -96 -128
WIRE -32 80 -32 0
WIRE -16 80 -32 80
WIRE 432 80 432 48
WIRE 432 80 336 80
WIRE 640 128 640 -112
WIRE -320 144 -320 128
WIRE -128 144 -320 144
WIRE -16 144 -32 144
WIRE 352 144 336 144
WIRE -320 160 -320 144
WIRE 432 176 432 160
WIRE -96 208 -96 128
WIRE -16 208 -96 208
WIRE 592 208 336 208
WIRE -320 256 -320 240
WIRE -80 272 -96 272
WIRE 416 272 336 272
WIRE 560 272 416 272
WIRE 640 272 640 224
WIRE 640 272 560 272
WIRE 656 272 640 272
WIRE 768 272 736 272
WIRE 816 272 768 272
WIRE 896 272 816 272
WIRE 992 272 896 272
WIRE 992 288 992 272
WIRE 816 304 816 272
WIRE 896 304 896 272
WIRE -336 320 -368 320
WIRE -224 320 -256 320
WIRE -144 320 -224 320
WIRE -368 336 -368 320
WIRE -224 336 -224 320
WIRE -128 336 -128 144
WIRE -16 336 -128 336
WIRE 416 336 336 336
WIRE 416 352 416 336
WIRE 816 384 816 368
WIRE 896 384 896 368
WIRE 992 384 992 368
WIRE -144 400 -144 320
WIRE -16 400 -144 400
WIRE 384 400 384 -128
WIRE 384 400 336 400
WIRE -368 416 -368 400
WIRE -224 416 -224 400
WIRE -208 464 -256 464
WIRE -112 464 -128 464
WIRE -32 464 -112 464
WIRE 384 464 384 400
WIRE 384 464 336 464
WIRE 416 464 416 416
WIRE 416 464 384 464
WIRE 432 464 416 464
WIRE -256 480 -256 464
WIRE -112 480 -112 464
WIRE 640 512 640 272
WIRE -32 528 -32 464
WIRE -16 528 -32 528
WIRE 560 528 560 272
WIRE 560 528 336 528
WIRE -256 560 -256 544
WIRE -112 560 -112 544
WIRE -128 592 -256 592
WIRE -16 592 -128 592
WIRE 592 592 336 592
WIRE -256 608 -256 592
WIRE -128 608 -128 592
WIRE -16 656 -48 656
WIRE 512 656 336 656
WIRE 640 656 640 608
WIRE 640 656 512 656
WIRE 640 672 640 656
WIRE -256 704 -256 688
WIRE -128 704 -128 672
WIRE -128 704 -256 704
WIRE -48 704 -48 656
WIRE -48 704 -128 704
WIRE -256 720 -256 704
WIRE -16 720 -160 720
WIRE 352 720 336 720
WIRE 768 720 768 272
WIRE 768 720 432 720
WIRE -112 784 -128 784
WIRE -16 784 -32 784
WIRE 416 784 336 784
WIRE 512 784 512 656
WIRE 512 784 496 784
WIRE -256 816 -256 800
WIRE 80 864 80 848
WIRE 240 864 240 848
WIRE -160 896 -160 720
WIRE 768 896 768 720
WIRE 768 896 -160 896
FLAG 800 0 0
FLAG 992 272 OUT
FLAG 800 -112 IN
FLAG 688 0 0
FLAG -256 816 0
FLAG 240 864 0
FLAG 80 864 0
FLAG 80 -80 0
FLAG -32 144 0
FLAG -96 272 0
FLAG -128 784 0
FLAG -368 416 0
FLAG -224 416 0
FLAG 640 672 0
FLAG 816 384 0
FLAG 896 384 0
FLAG 992 384 0
FLAG 432 176 0
FLAG 496 464 0
FLAG -320 256 0
FLAG -256 560 0
FLAG -112 560 0
FLAG 352 144 0
SYMBOL nmos 592 128 R0
SYMATTR InstName Q1
SYMATTR Value Si4884DY
SYMBOL nmos 592 512 R0
WINDOW 3 52 72 Left 0
SYMATTR Value Si4874DY
SYMATTR InstName Q2
SYMBOL cap 400 272 R0
WINDOW 0 35 15 Left 0
WINDOW 3 33 52 Left 0
SYMATTR InstName C1
SYMATTR Value .22µ
SYMBOL res 224 -112 R0
SYMATTR InstName R1
SYMATTR Value 10
SYMBOL cap -16 256 R90
WINDOW 0 0 32 VBottom 0
WINDOW 3 32 32 VTop 0
SYMATTR InstName C2
SYMATTR Value 2.2n
SYMBOL res -16 768 R90
WINDOW 0 0 56 VBottom 0
WINDOW 3 32 56 VTop 0
SYMATTR InstName R2
SYMATTR Value 66.5K
SYMBOL cap -384 336 R0
SYMATTR InstName C3
SYMATTR Value 1000p
SYMBOL cap -240 336 R0
SYMATTR InstName C4
SYMATTR Value 100p
SYMBOL res -240 304 R90
WINDOW 0 0 56 VBottom 0
WINDOW 3 32 56 VTop 0
SYMATTR InstName R3
SYMATTR Value 10K
SYMBOL ind 640 288 R270
WINDOW 0 32 56 VTop 0
WINDOW 3 -1 66 VBottom 0
SYMATTR InstName L1
SYMATTR Value 1.0µ
SYMATTR SpiceLine Rser=0.005
SYMBOL voltage 800 -112 R0
SYMATTR InstName V1
SYMATTR Value 12
SYMBOL cap 880 304 R0
WINDOW 3 38 32 Left 0
WINDOW 40 32 64 Left 0
SYMATTR InstName C5
SYMATTR Value 22µ
SYMATTR SpiceLine V=6.3 Irms=0 Rser=0.0008 MTBF=0 Lser=0 mfg="TDK" pn="C3225X5ROJ226M" type="X5R" ppPkg=1
SYMATTR SpiceLine2 x2
SYMBOL res -272 704 R0
SYMATTR InstName R4
SYMATTR Value 5.11K
SYMBOL res -272 592 R0
SYMATTR InstName R5
SYMATTR Value 16.2K
SYMBOL cap 64 -80 R0
WINDOW 0 30 18 Left 0
WINDOW 3 26 61 Left 0
SYMATTR InstName C6
SYMATTR Value .1µ
SYMBOL cap 672 -80 R0
WINDOW 3 38 32 Left 0
WINDOW 40 27 57 Left 0
SYMATTR InstName C7
SYMATTR Value 22µ
SYMATTR SpiceLine Rser=0.003
SYMATTR SpiceLine2 x2
SYMBOL cap -144 608 R0
SYMATTR Value 220p
SYMATTR InstName C8
SYMBOL res -48 -96 R0
SYMATTR InstName R6
SYMATTR Value 100K
SYMBOL polcap 800 304 R0
SYMATTR InstName C9
SYMATTR Value 180µ
SYMATTR SpiceLine V=4 Irms=3.4 Rser=0.015 MTBF=0 Lser=0 mfg="KEMET" pn="A700D187M004ATE015" type="Al electrolytic" ppPkg=1
SYMBOL schottky 400 416 M180
WINDOW 0 38 56 Left 0
WINDOW 3 35 16 Left 0
SYMATTR InstName D1
SYMATTR Value CMDSH2-3
SYMATTR Description Diode
SYMATTR Type diode
SYMBOL res 416 -48 R0
SYMATTR InstName R7
SYMATTR Value 23.2K
SYMBOL res 416 64 R0
SYMATTR InstName R8
SYMATTR Value 26.7K
SYMBOL cap 496 448 R90
WINDOW 0 0 32 VBottom 0
WINDOW 3 32 32 VTop 0
SYMATTR InstName C10
SYMATTR Value 10µ
SYMBOL res -112 32 R0
SYMATTR InstName R9
SYMATTR Value 100K
SYMBOL res -336 32 R0
SYMATTR InstName R10
SYMATTR Value 39K
SYMBOL res -336 144 R0
SYMATTR InstName R11
SYMATTR Value 11K
SYMBOL cap -272 480 R0
SYMATTR InstName C11
SYMATTR Value .01µ
SYMBOL cap -128 480 R0
WINDOW 3 26 60 Left 0
SYMATTR Value 1000p
SYMATTR InstName C12
SYMBOL res -112 448 R90
WINDOW 0 0 56 VBottom 0
WINDOW 3 32 56 VTop 0
SYMATTR InstName R12
SYMATTR Value 10K
SYMBOL PowerProducts\\LTC3823 160 432 R0
SYMATTR InstName U1
SYMBOL res 448 704 R90
WINDOW 0 0 56 VBottom 0
WINDOW 3 32 56 VTop 0
SYMATTR InstName R13
SYMATTR Value 100
SYMBOL res 512 768 R90
WINDOW 0 0 56 VBottom 0
WINDOW 3 32 56 VTop 0
SYMATTR InstName R14
SYMATTR Value 100
SYMBOL res 976 272 R0
SYMATTR InstName Rload
SYMATTR Value 0.25
TEXT 816 464 Left 0 !.tran 1.2m startup
TEXT 352 -176 Center 0 ;LTC3823 - No Rsense, Synchronous Step-Down DC/DC Converter With Differential Output Sensing \nVout: 2.5V at 10A, Vin: 12V
TEXT -280 888 Left 0 ;Note:\n  If the simulation model is not found please update with the "Sync Release" command from the "Tools" menu.\n  It remains the customer's responsibility to verify proper and reliable operation in the actual application.\n  Component substitution and printed circuit board layout may significantly affect circuit performance or reliability.\n  Contact your local sales representative for assistance. This circuit is distributed to customers only for use with LTC parts.\n  Copyright © 2008 Linear Technology Inc. All rights reserved.
