Version 4
SHEET 1 1564 872
WIRE 224 -192 224 -208
WIRE -384 -144 -480 -144
WIRE -304 -144 -384 -144
WIRE -224 -144 -304 -144
WIRE 112 -144 -224 -144
WIRE -480 -128 -480 -144
WIRE -384 -128 -384 -144
WIRE -304 -128 -304 -144
WIRE -64 -112 -176 -112
WIRE 224 -112 224 -128
WIRE 224 -112 -64 -112
WIRE -176 -96 -176 -112
WIRE -64 -96 -64 -112
WIRE 624 -80 336 -80
WIRE 112 -48 112 -144
WIRE 224 -48 224 -112
WIRE 336 -48 336 -80
WIRE -480 -32 -480 -48
WIRE -384 -32 -384 -64
WIRE -304 -32 -304 -64
WIRE -64 16 -64 -16
WIRE 16 16 -64 16
WIRE 624 16 624 -80
WIRE 624 16 432 16
WIRE -224 112 -224 -144
WIRE 16 112 -224 112
WIRE 464 112 432 112
WIRE 464 128 464 112
WIRE -176 208 -176 -16
WIRE 16 208 -176 208
WIRE 464 208 464 192
WIRE 464 208 432 208
WIRE 512 208 464 208
WIRE 624 208 624 16
WIRE 624 208 592 208
WIRE 720 208 624 208
WIRE 816 208 720 208
WIRE 624 224 624 208
WIRE 720 224 720 208
WIRE 816 224 816 208
WIRE -80 304 -96 304
WIRE 16 304 0 304
WIRE 464 304 432 304
WIRE 624 320 624 288
WIRE 720 320 720 288
WIRE 816 320 816 304
WIRE 16 400 0 400
WIRE 480 400 432 400
WIRE 576 400 480 400
WIRE 480 416 480 400
WIRE 576 416 576 400
WIRE 96 480 96 464
WIRE 352 480 352 464
WIRE 480 512 480 496
WIRE 576 512 576 480
WIRE 64 544 16 544
WIRE 176 544 176 464
WIRE 176 544 144 544
WIRE 272 544 272 464
WIRE 384 544 272 544
WIRE 16 560 16 544
WIRE 176 560 176 544
WIRE 272 560 272 544
WIRE 384 576 384 544
WIRE 16 656 16 624
WIRE 176 656 176 624
WIRE 272 656 272 640
WIRE 384 656 384 640
FLAG 96 480 0
FLAG 272 656 0
FLAG 384 656 0
FLAG -96 304 0
FLAG 0 400 0
FLAG -480 -32 0
FLAG 224 -208 0
FLAG 352 480 0
FLAG 480 512 0
FLAG 576 512 0
FLAG 464 304 0
FLAG 624 320 0
FLAG 816 320 0
FLAG 816 208 OUT
FLAG -480 -144 IN
FLAG 720 320 0
FLAG -384 -32 0
FLAG -304 -32 0
FLAG 16 656 0
FLAG 176 656 0
SYMBOL PowerProducts\\LTC3649 224 208 R0
SYMATTR InstName U1
SYMBOL res 256 544 R0
SYMATTR InstName R1
SYMATTR Value 100K
SYMBOL cap 368 576 R0
SYMATTR InstName C1
SYMATTR Value 1n
SYMBOL res 16 288 R90
WINDOW 0 0 56 VBottom 2
WINDOW 3 32 56 VTop 2
SYMATTR InstName R2
SYMATTR Value 200K
SYMBOL VOLTAGE -480 -144 R0
WINDOW 123 24 138 Left 2
WINDOW 39 24 117 Left 2
SYMATTR InstName V1
SYMATTR Value 48
SYMBOL cap 208 -192 R0
SYMATTR InstName C2
SYMATTR Value 2.2µ
SYMATTR SpiceLine Rser=10m
SYMBOL res 464 400 R0
SYMATTR InstName R3
SYMATTR Value 10K
SYMBOL cap 560 416 R0
SYMATTR InstName C3
SYMATTR Value 10n
SYMBOL ind 496 224 R270
WINDOW 0 32 56 VTop 2
WINDOW 3 5 56 VBottom 2
SYMATTR InstName L1
SYMATTR Value 5.6µ
SYMATTR SpiceLine Rser=10m
SYMBOL cap 448 128 R0
SYMATTR InstName C4
SYMATTR Value .1µ
SYMBOL cap 608 224 R0
WINDOW 123 27 58 Left 2
WINDOW 3 36 34 Left 2
SYMATTR Value2 x2
SYMATTR Value 22µ
SYMATTR InstName C5
SYMATTR SpiceLine Rser=20m
SYMBOL res 800 208 R0
SYMATTR InstName Rload
SYMATTR Value 1.25
SYMBOL polcap 704 224 R0
SYMATTR InstName C6
SYMATTR Value 150µ
SYMATTR SpiceLine Rser=20m
SYMBOL polcap -400 -128 R0
SYMATTR InstName C7
SYMATTR Value 10µ
SYMATTR SpiceLine Rser=20m
SYMBOL cap -320 -128 R0
WINDOW 123 27 58 Left 2
WINDOW 3 36 34 Left 2
SYMATTR Value2 x2
SYMATTR Value 10µ
SYMATTR InstName C8
SYMATTR SpiceLine Rser=20m
SYMBOL cap 0 560 R0
SYMATTR Value 4.7n
SYMATTR InstName C9
SYMBOL res 160 528 R90
WINDOW 0 0 56 VBottom 2
WINDOW 3 32 56 VTop 2
SYMATTR InstName R4
SYMATTR Value 1K
SYMBOL cap 160 560 R0
SYMATTR InstName C10
SYMATTR Value 10p
SYMBOL res -192 -112 R0
SYMATTR InstName R5
SYMATTR Value 100K
SYMBOL res -80 -112 R0
SYMATTR InstName R6
SYMATTR Value 10K
TEXT 576 648 Left 2 !.tran 1m startup
TEXT -480 680 Left 2 ;Notes:\n  If the simulation model is not found please update with the "Sync Release" command from the "Tools" menu.\n  It remains the customer's responsibility to verify proper and reliable operation in the actual application.\n  Component substitution and printed circuit board layout may significantly affect circuit performance or reliability.\n  Contact your local sales representative for assistance. This circuit is distributed to customers only for use with LTC parts.\n  Copyright © 2016 Linear Technology Inc. All rights reserved.
TEXT 192 -304 Center 2 ;LTC3649 - 60V, 4A Synchronous Step-Down Regulator with Rail-to-Rail Programmable Output\nHigh Voltage Monolothic Synchronous Buck Regulator\nInput: 4V to 60V     Output: 5V @ 4A, Fsw = 500kHz
