Version 4
SHEET 1 1932 1180
WIRE -800 -112 -1424 -112
WIRE -624 -112 -800 -112
WIRE 448 -112 -624 -112
WIRE 528 -112 448 -112
WIRE 752 -112 528 -112
WIRE -1424 -96 -1424 -112
WIRE 448 -96 448 -112
WIRE 528 -96 528 -112
WIRE 192 -64 192 -80
WIRE -800 -16 -800 -112
WIRE 448 -16 448 -32
WIRE 192 0 -688 0
WIRE 528 0 528 -16
WIRE 816 0 528 0
WIRE 976 0 880 0
WIRE 1040 0 976 0
WIRE 1136 0 1040 0
WIRE 1232 0 1136 0
WIRE -1424 16 -1424 -16
WIRE -288 16 -432 16
WIRE 48 16 -288 16
WIRE 528 16 528 0
WIRE 1040 16 1040 0
WIRE 1136 16 1136 0
WIRE 1232 16 1232 0
WIRE 48 32 48 16
WIRE 192 32 192 0
WIRE 336 32 336 16
WIRE -800 96 -800 64
WIRE -32 96 -800 96
WIRE 480 96 416 96
WIRE -800 112 -800 96
WIRE 1040 112 1040 80
WIRE 1136 112 1136 80
WIRE 1232 112 1232 96
WIRE 752 128 752 -112
WIRE -288 160 -288 16
WIRE -624 176 -624 -112
WIRE 528 192 528 112
WIRE 528 192 416 192
WIRE 528 208 528 192
WIRE -800 224 -800 192
WIRE -288 272 -288 240
WIRE -288 272 -336 272
WIRE 752 272 752 208
WIRE 832 272 752 272
WIRE 976 272 976 0
WIRE 976 272 896 272
WIRE -288 288 -288 272
WIRE -32 288 -48 288
WIRE 432 288 416 288
WIRE 528 304 528 288
WIRE 752 304 752 272
WIRE -912 320 -1008 320
WIRE -880 320 -912 320
WIRE -688 320 -688 0
WIRE -688 320 -800 320
WIRE -1008 336 -1008 320
WIRE -624 352 -624 256
WIRE -560 352 -624 352
WIRE -432 352 -432 16
WIRE -432 352 -496 352
WIRE 704 384 416 384
WIRE -288 400 -288 368
WIRE -1008 416 -1008 400
WIRE -624 416 -624 352
WIRE -432 432 -432 352
WIRE -912 448 -912 320
WIRE -128 480 -144 480
WIRE -32 480 -48 480
WIRE 752 480 752 400
WIRE 752 480 416 480
WIRE -672 496 -784 496
WIRE 752 496 752 480
WIRE -624 528 -624 512
WIRE -624 528 -656 528
WIRE -432 528 -432 496
WIRE -1136 560 -1184 560
WIRE -1040 560 -1056 560
WIRE -752 560 -784 560
WIRE -656 560 -656 528
WIRE -656 560 -672 560
WIRE 976 560 976 272
WIRE -1184 576 -1184 560
WIRE -624 576 -624 528
WIRE -32 576 -48 576
WIRE 432 576 416 576
WIRE 752 592 752 576
WIRE -752 624 -784 624
WIRE -1184 656 -1184 640
WIRE 976 672 976 640
WIRE 976 672 416 672
WIRE -624 688 -624 656
WIRE 976 688 976 672
WIRE -912 704 -912 672
WIRE -752 736 -752 624
WIRE -336 736 -336 272
WIRE -336 736 -752 736
WIRE 576 768 416 768
WIRE 656 768 576 768
WIRE 784 768 736 768
WIRE 976 784 976 768
WIRE 576 800 576 768
WIRE 784 800 784 768
WIRE -32 864 -48 864
WIRE 432 864 416 864
WIRE 576 880 576 864
WIRE 784 880 784 864
WIRE 48 944 48 928
WIRE 336 944 336 928
FLAG 48 944 0
FLAG -144 480 0
FLAG 976 784 0
FLAG -800 224 0
FLAG -1424 16 0
FLAG 1136 112 0
FLAG 1232 112 0
FLAG 528 304 0
FLAG 192 -80 0
FLAG 1232 0 OUT
FLAG 336 944 0
FLAG 496 864 0
FLAG -48 288 0
FLAG -48 576 0
FLAG -48 864 0
FLAG 336 -48 0
FLAG 432 288 0
FLAG 432 576 0
FLAG 752 592 0
FLAG -1424 -112 IN
FLAG 448 -16 0
FLAG 1040 112 0
FLAG 784 880 0
FLAG -432 528 0
FLAG -624 688 0
FLAG -1008 416 0
FLAG -288 400 0
FLAG -912 704 0
FLAG -1184 656 0
FLAG 576 880 0
SYMBOL nmos 480 16 R0
WINDOW 3 61 65 Left 2
WINDOW 0 62 23 Left 2
SYMATTR Value BSC100N10NSF
SYMATTR InstName Q1
SYMBOL ind 512 -112 R0
SYMATTR InstName L1
SYMATTR Value 15µ
SYMATTR SpiceLine Rser=5m Rpar=5K
SYMBOL schottky 816 16 R270
WINDOW 0 32 32 VTop 2
WINDOW 3 0 32 VBottom 2
SYMATTR InstName D1
SYMATTR Value PDS5100
SYMATTR Description Diode
SYMATTR Type diode
SYMBOL res -32 464 R90
WINDOW 0 0 56 VBottom 2
WINDOW 3 32 56 VTop 2
SYMATTR InstName R1
SYMATTR Value 45.3K
SYMBOL res 960 544 R0
SYMATTR InstName R2
SYMATTR Value 715K
SYMBOL res 960 672 R0
SYMATTR InstName R3
SYMATTR Value 11.8K
SYMBOL res -816 -32 R0
SYMATTR InstName R4
SYMATTR Value 84.5K
SYMBOL res -816 96 R0
SYMATTR InstName R5
SYMATTR Value 34K
SYMBOL voltage -1424 -112 R0
WINDOW 123 24 138 Left 2
WINDOW 39 24 117 Left 2
SYMATTR Value PWL(0 0 0.0001 14 0.0006 14 0.0007 5)
SYMATTR InstName V1
SYMBOL res 512 192 R0
SYMATTR InstName R6
SYMATTR Value 4m
SYMBOL cap 176 -64 R0
WINDOW 0 35 14 Left 2
WINDOW 3 35 59 Left 2
SYMATTR InstName C2
SYMATTR Value 4.7µ
SYMBOL cap 496 848 R90
WINDOW 0 0 32 VBottom 2
WINDOW 3 32 32 VTop 2
SYMATTR InstName C3
SYMATTR Value .001µ
SYMBOL cap 320 -48 R0
WINDOW 0 37 16 Left 2
WINDOW 3 33 58 Left 2
SYMATTR InstName C4
SYMATTR Value .001µ
SYMBOL ind 736 112 R0
SYMATTR InstName L2
SYMATTR Value 15µ
SYMATTR SpiceLine Rser=5m Rpar=5K
SYMBOL res 736 480 R0
SYMATTR InstName R7
SYMATTR Value 4m
SYMBOL nmos 704 304 R0
WINDOW 3 60 74 Left 2
SYMATTR Value BSC100N10NSF
SYMATTR InstName Q2
SYMBOL schottky 832 288 R270
WINDOW 0 32 32 VTop 2
WINDOW 3 0 32 VBottom 2
SYMATTR InstName D2
SYMATTR Value PDS5100
SYMATTR Description Diode
SYMATTR Type diode
SYMBOL res 1216 0 R0
SYMATTR InstName Rload
SYMATTR Value 75
SYMBOL cap 768 800 R0
SYMATTR InstName C5
SYMATTR Value 15n
SYMBOL res 640 784 R270
WINDOW 0 32 56 VTop 2
WINDOW 3 0 56 VBottom 2
SYMATTR InstName R10
SYMATTR Value 21K
SYMBOL cap 560 800 R0
SYMATTR InstName C8
SYMATTR Value 120p
SYMBOL cap -448 432 R0
SYMATTR InstName C9
SYMATTR Value 0.47µ
SYMATTR SpiceLine Rser=0.05
SYMBOL ind -640 160 R0
SYMATTR Value 100µ
SYMATTR InstName L3
SYMATTR SpiceLine Rser=0.3
SYMBOL schottky -560 368 R270
WINDOW 0 32 32 VTop 2
WINDOW 3 0 32 VBottom 2
SYMATTR InstName D3
SYMATTR Value PMEG6010AED
SYMATTR Description Diode
SYMATTR Type diode
SYMBOL nmos -672 416 R0
WINDOW 3 58 63 Left 2
WINDOW 0 60 21 Left 2
SYMATTR Value 2N7002
SYMATTR InstName Q3
SYMBOL res -640 560 R0
SYMATTR InstName R11
SYMATTR Value 50m
SYMBOL res -656 544 R90
WINDOW 0 0 56 VBottom 2
WINDOW 3 32 56 VTop 2
SYMATTR InstName R12
SYMATTR Value 3..01k
SYMBOL cap -1024 336 R0
SYMATTR InstName C10
SYMATTR Value 1µ
SYMBOL res -784 304 R90
WINDOW 0 0 56 VBottom 2
WINDOW 3 32 56 VTop 2
SYMATTR InstName R13
SYMATTR Value 402
SYMBOL res -304 144 R0
SYMATTR InstName R14
SYMATTR Value 100K
SYMBOL res -304 272 R0
SYMATTR InstName R15
SYMATTR Value 8.66K
SYMBOL res -1040 544 R90
WINDOW 0 0 56 VBottom 2
WINDOW 3 32 56 VTop 2
SYMATTR InstName R16
SYMATTR Value 10K
SYMBOL cap -1200 576 R0
SYMATTR InstName C11
SYMATTR Value 10n
SYMBOL cap 432 -96 R0
SYMATTR InstName C6
SYMATTR Value 6.8µ
SYMBOL cap 1024 16 R0
SYMATTR InstName C7
SYMATTR Value 4.7µ
SYMBOL cap 1120 16 R0
SYMATTR InstName C1
SYMATTR Value 22µ
SYMATTR SpiceLine Rser=10m
SYMBOL PowerProducts\\LTC3862-2 192 432 R0
SYMATTR InstName U1
SYMBOL PowerProducts\\LTC3803-5 -912 560 R0
SYMATTR InstName U2
TEXT 912 944 Left 2 !.tran 1m startup
TEXT 80 -128 Bottom 2 ;LTC3862-2 - Multi-Phase Current Mode Step-Up DC/DC Controller\nAutomotive High Output Voltage Boost Converter\n(The major advantage of LTC3862-2 is its ability to function at low voltages and drive standard level MOSFETs.)\nInput: 5V to 28V     Output: 75V @ 1A
TEXT -584 968 Left 2 ;Notes: \n  A smaller SS capacitor, C3, is being used to reduce simulation time. Typical value should be 0.1µF.\n  If the simulation model is not found please update with the "Sync Release" command from the "Tools" menu.\n  It remains the customer's responsibility to verify proper and reliable operation in the actual application.\n  Component substitution and printed circuit board layout may significantly affect circuit performance or reliability.\n  Contact your local sales representative for assistance. This circuit is distributed to customers only for use with LTC parts.\n  Copyright © 2013 Linear Technology Inc.  All rights reserved.
TEXT -688 808 Bottom 2 ;OPTIONAL:  Low power LTC3803-5 booster provides 10V for biasing \nLTC3862 when input voltage drops during cold cranking.
LINE Normal -1248 848 -176 848 2
LINE Normal -1248 208 -1248 848 2
LINE Normal -880 208 -1248 208 2
LINE Normal -880 -144 -880 208 2
LINE Normal -176 -144 -880 -144 2
LINE Normal -176 848 -176 -144 2
