Version 4
SHEET 1 1192 680
WIRE -400 -48 -512 -48
WIRE -304 -48 -336 -48
WIRE -256 -48 -304 -48
WIRE -160 -48 -256 -48
WIRE -80 -48 -160 -48
WIRE 96 -48 -80 -48
WIRE 256 -48 96 -48
WIRE -512 -32 -512 -48
WIRE -256 -32 -256 -48
WIRE -160 -32 -160 -48
WIRE 256 -32 256 -48
WIRE -80 16 -80 -48
WIRE 112 16 80 16
WIRE 432 16 400 16
WIRE 432 32 432 16
WIRE -512 64 -512 48
WIRE -400 64 -432 64
WIRE -304 64 -304 -48
WIRE -304 64 -336 64
WIRE -256 64 -256 32
WIRE -160 64 -160 32
WIRE -80 112 -80 96
WIRE 112 112 -80 112
WIRE 432 112 432 96
WIRE 432 112 400 112
WIRE 496 112 432 112
WIRE 608 112 576 112
WIRE 688 112 608 112
WIRE 832 112 688 112
WIRE 928 112 832 112
WIRE -432 128 -432 64
WIRE -80 128 -80 112
WIRE 608 128 608 112
WIRE 832 128 832 112
WIRE 928 128 928 112
WIRE 96 208 96 -48
WIRE 112 208 96 208
WIRE 608 208 608 192
WIRE 608 208 400 208
WIRE 688 208 688 192
WIRE 688 208 608 208
WIRE -432 224 -432 192
WIRE -80 224 -80 208
WIRE 688 224 688 208
WIRE 832 224 832 192
WIRE 928 224 928 208
WIRE 416 304 400 304
WIRE 688 320 688 304
FLAG 416 304 0
FLAG -512 64 0
FLAG 688 320 0
FLAG 832 224 0
FLAG 928 224 0
FLAG -304 -48 IN
FLAG 928 112 OUT1
FLAG 16 16 0
FLAG -80 224 0
FLAG -256 64 0
FLAG -160 64 0
FLAG -432 224 0
SYMBOL voltage -512 -48 R0
WINDOW 123 0 0 Left 2
WINDOW 39 0 0 Left 2
SYMATTR InstName V1
SYMATTR Value 3.6
SYMBOL cap 416 32 R0
SYMATTR InstName C1
SYMATTR Value 22n
SYMBOL ind 480 128 R270
WINDOW 0 32 56 VTop 2
WINDOW 3 5 56 VBottom 2
SYMATTR InstName L1
SYMATTR Value 15µ
SYMBOL res 672 96 R0
SYMATTR InstName R1
SYMATTR Value 1.78Meg
SYMBOL res 672 208 R0
SYMATTR InstName R2
SYMATTR Value 665K
SYMBOL cap 592 128 R0
SYMATTR InstName C2
SYMATTR Value 22p
SYMBOL cap 816 128 R0
SYMATTR InstName C3
SYMATTR Value 22µ
SYMATTR SpiceLine Rser=0.0008
SYMBOL PowerProducts\\LTC3103 256 160 R0
SYMATTR InstName U1
SYMBOL res -96 0 R0
SYMATTR InstName R3
SYMATTR Value 3.09Meg
SYMBOL res -96 112 R0
SYMATTR InstName R4
SYMATTR Value 715K
SYMBOL cap 80 0 R90
WINDOW 0 0 32 VBottom 2
WINDOW 3 32 32 VTop 2
SYMATTR InstName C4
SYMATTR Value 1µ
SYMBOL cap -176 -32 R0
SYMATTR InstName C5
SYMATTR Value 10µ
SYMBOL cap -272 -32 R0
SYMATTR InstName C6
SYMATTR Value 100µ
SYMBOL schottky -400 -32 R270
WINDOW 0 32 32 VTop 2
WINDOW 3 0 32 VBottom 2
SYMATTR InstName D1
SYMATTR Value B540C
SYMATTR Description Diode
SYMATTR Type diode
SYMBOL schottky -400 80 R270
WINDOW 0 32 32 VTop 2
WINDOW 3 0 32 VBottom 2
SYMATTR InstName D2
SYMATTR Value B540C
SYMATTR Description Diode
SYMATTR Type diode
SYMBOL diode -448 192 M180
WINDOW 0 30 57 Left 2
WINDOW 3 24 0 Left 2
SYMATTR InstName U2
SYMATTR Value PhotoCell
SYMATTR Prefix X
SYMBOL res 912 112 R0
SYMATTR InstName Rload
SYMATTR Value 7.3
TEXT 776 320 Left 2 !.tran 2m startup
TEXT -328 224 Left 1 !.subckt PhotoCell B A\nC1 A B 1n\nV1 N001 B PWL(0 0 3u 4.8)\nD1 N001 A S2\nR1 A N001 75\n.model S2 D(Ron=.1 Ilimit=5.1 epsilon=.5)\n.ends
TEXT 304 -56 Bottom 2 ;LTC3103 - 1.8µA Quiescent Current, 15V, 300mA Synchronous Step-Down DC/DC Converter\nSolar-Powered Buck Supply with Li Battery Backup\nInput: 3.2V to 15V (3.2V Bat Min)     Output: 2.2V @ 300mA
TEXT -480 344 Left 2 ;Note:\n  If the simulation model is not found please update with the "Sync Release" command from the "Tools" menu.\n  It remains the customer's responsibility to verify proper and reliable operation in the actual application.\n  Component substitution and printed circuit board layout may significantly affect circuit performance or reliability.\n  Contact your local sales representative for assistance. This circuit is distributed to customers only for use with LTC parts.\n  Copyright © 2012 Linear Technology Inc. All rights reserved.
