Version 4
SHEET 1 1124 788
WIRE 832 -192 -144 -192
WIRE 32 -144 0 -144
WIRE 144 -144 112 -144
WIRE 448 -144 272 -144
WIRE 592 -144 448 -144
WIRE 672 -144 592 -144
WIRE 720 -144 672 -144
WIRE 448 -128 448 -144
WIRE 592 -128 592 -144
WIRE 720 -128 720 -144
WIRE 144 -96 144 -144
WIRE 272 -96 272 -144
WIRE -144 -32 -144 -192
WIRE -144 -32 -288 -32
WIRE 0 -32 0 -144
WIRE 0 -32 -144 -32
WIRE 32 -32 0 -32
WIRE 448 -32 448 -48
WIRE 448 -32 384 -32
WIRE 592 -32 592 -64
WIRE 720 -32 720 -48
WIRE -288 -16 -288 -32
WIRE -144 -16 -144 -32
WIRE 448 -16 448 -32
WIRE 672 16 672 -144
WIRE 0 64 0 -32
WIRE 32 64 0 64
WIRE 400 64 384 64
WIRE -288 80 -288 64
WIRE -144 80 -144 48
WIRE 448 80 448 64
WIRE 400 112 400 64
WIRE 672 112 672 96
WIRE 672 112 400 112
WIRE 0 160 0 64
WIRE 32 160 0 160
WIRE 832 160 832 -192
WIRE 832 160 384 160
WIRE 0 256 0 160
WIRE 32 256 0 256
WIRE 416 256 384 256
WIRE 528 256 496 256
WIRE 640 256 528 256
WIRE 720 256 640 256
WIRE 800 256 720 256
WIRE 528 272 528 256
WIRE 640 272 640 256
WIRE 800 272 800 256
WIRE -160 352 -288 352
WIRE -64 352 -160 352
WIRE 32 352 -64 352
WIRE 528 352 384 352
WIRE -288 368 -288 352
WIRE -160 368 -160 352
WIRE -64 368 -64 352
WIRE 528 368 528 352
WIRE 640 368 640 336
WIRE 800 368 800 352
WIRE 720 400 720 256
WIRE 32 448 -64 448
WIRE 400 448 384 448
WIRE -288 464 -288 448
WIRE -160 464 -160 432
WIRE -64 464 -64 448
WIRE 528 464 528 448
WIRE 400 496 400 448
WIRE 720 496 720 480
WIRE 720 496 400 496
WIRE 144 528 144 512
WIRE 272 528 272 512
WIRE -64 560 -64 544
FLAG -288 80 0
FLAG 144 528 0
FLAG 272 528 0
FLAG 448 80 0
FLAG 592 -32 0
FLAG 720 -32 0
FLAG 720 -144 OUT1
FLAG -288 -32 IN
FLAG 528 464 0
FLAG 640 368 0
FLAG 800 368 0
FLAG 800 256 OUT2
FLAG -64 560 0
FLAG -160 464 0
FLAG -288 464 0
FLAG -288 352 OUT3
FLAG -144 80 0
SYMBOL voltage -288 -32 R0
WINDOW 123 0 0 Left 0
WINDOW 39 0 0 Left 0
SYMATTR InstName V1
SYMATTR Value 2.5
SYMBOL res 432 -144 R0
SYMATTR InstName R1
SYMATTR Value 866K
SYMBOL res 432 -32 R0
SYMATTR InstName R2
SYMATTR Value 499K
SYMBOL cap 576 -128 R0
SYMATTR InstName C1
SYMATTR Value 10µ
SYMATTR SpiceLine Rser=1m
SYMBOL res 512 256 R0
SYMATTR InstName R3
SYMATTR Value 499K
SYMBOL res 512 352 R0
SYMATTR InstName R4
SYMATTR Value 499K
SYMBOL cap 624 272 R0
SYMATTR InstName C2
SYMATTR Value 10µ
SYMATTR SpiceLine Rser=1m
SYMBOL PowerProducts\\LTC3100 208 208 R0
SYMATTR InstName U1
SYMBOL ind 16 -128 R270
WINDOW 0 32 56 VTop 0
WINDOW 3 5 56 VBottom 0
SYMATTR InstName L1
SYMATTR Value 3.3µ
SYMATTR SpiceLine Rser=5m Rpar=2K
SYMBOL res 656 0 R0
SYMATTR InstName R5
SYMATTR Value 499K
SYMBOL ind 400 272 R270
WINDOW 0 32 56 VTop 0
WINDOW 3 5 56 VBottom 0
SYMATTR InstName L2
SYMATTR Value 4.7µ
SYMATTR SpiceLine Rser=5m Rpar=2K
SYMBOL res 704 384 R0
SYMATTR InstName R6
SYMATTR Value 499K
SYMBOL res -80 352 R0
SYMATTR InstName R7
SYMATTR Value 121K
SYMBOL res -80 448 R0
SYMATTR InstName R8
SYMATTR Value 60.4K
SYMBOL cap -176 368 R0
SYMATTR InstName C3
SYMATTR Value 2.2µ
SYMATTR SpiceLine Rser=1m
SYMBOL res 704 -144 R0
SYMATTR InstName Rload1
SYMATTR Value 33
SYMBOL res 784 256 R0
SYMATTR InstName Rload2
SYMATTR Value 4.6
SYMBOL res -304 352 R0
SYMATTR InstName Rload3
SYMATTR Value 36
SYMBOL cap -160 -16 R0
SYMATTR InstName C5
SYMATTR Value 4.7µ
SYMATTR SpiceLine Rser=1m
TEXT 600 536 Left 0 !.tran 1.5m startup
TEXT 592 -144 Bottom 0 ;3.3V@0.1A
TEXT 640 256 Bottom 0 ;1.2V@0.25A
TEXT -160 352 Bottom 0 ;1.8V@0.05A
TEXT -392 568 Left 0 ;Note:\n  If the simulation model is not found please update with the "Sync Release" command from the "Tools" menu.\n  It remains the customer's responsibility to verify proper and reliable operation in the actual application.\n  Component substitution and printed circuit board layout may significantly affect circuit performance or reliability\n  Contact your local sales representative for assistance. This circuit is distributed to customers only for use with LTC parts\n  Copyright © 2011 Linear Technology Inc. All rights reserved.
TEXT 272 -200 Bottom 0 ;LTC3100 - 1.5MHz, Synchronous Dual Channel (Buck and Boost) DC/DC Converter and 100mA LDO\nInput: 1.8V to 5V     Outputs: 3.3V @ 0.1A, 1.2V @ 0.25A and 1.8V@0.05A
