Version 4
SHEET 1 1372 864
WIRE 1088 -400 -576 -400
WIRE 416 -384 -352 -384
WIRE 832 -384 416 -384
WIRE -224 -368 -304 -368
WIRE 32 -368 -224 -368
WIRE 128 -368 32 -368
WIRE 224 -368 128 -368
WIRE 656 -368 224 -368
WIRE -304 -352 -304 -368
WIRE 32 -336 32 -368
WIRE 128 -336 128 -368
WIRE 224 -336 224 -368
WIRE 416 -336 416 -384
WIRE -672 -288 -784 -288
WIRE -592 -288 -672 -288
WIRE -464 -288 -592 -288
WIRE -352 -288 -352 -384
WIRE -352 -288 -464 -288
WIRE -784 -272 -784 -288
WIRE -224 -272 -224 -368
WIRE -96 -272 -112 -272
WIRE 560 -272 544 -272
WIRE 656 -272 656 -368
WIRE 656 -272 640 -272
WIRE -672 -256 -672 -288
WIRE -464 -256 -464 -288
WIRE -352 -256 -352 -288
WIRE 656 -256 656 -272
WIRE 832 -256 832 -384
WIRE -784 -176 -784 -192
WIRE -672 -176 -672 -192
WIRE -464 -176 -464 -192
WIRE -96 -176 -304 -176
WIRE 784 -176 544 -176
WIRE -224 -80 -224 -208
WIRE -96 -80 -224 -80
WIRE 656 -80 656 -192
WIRE 656 -80 544 -80
WIRE -224 -64 -224 -80
WIRE 656 -64 656 -80
WIRE -688 16 -784 16
WIRE -576 16 -576 -400
WIRE -576 16 -688 16
WIRE -560 16 -576 16
WIRE -464 16 -480 16
WIRE -448 16 -464 16
WIRE -352 16 -352 -160
WIRE -352 16 -368 16
WIRE -224 16 -224 0
WIRE -224 16 -352 16
WIRE -96 16 -224 16
WIRE 656 16 656 0
WIRE 656 16 544 16
WIRE 832 16 832 -160
WIRE 832 16 656 16
WIRE 864 16 832 16
WIRE 976 16 944 16
WIRE 992 16 976 16
WIRE 1088 16 1088 -400
WIRE 1088 16 1072 16
WIRE -784 32 -784 16
WIRE -352 32 -352 16
WIRE 832 32 832 16
WIRE -688 48 -688 16
WIRE -96 112 -304 112
WIRE 784 112 544 112
WIRE -784 128 -784 112
WIRE -688 128 -688 112
WIRE 832 144 832 128
WIRE -352 160 -352 128
WIRE -576 208 -576 16
WIRE -96 208 -576 208
WIRE 1088 208 1088 16
WIRE 1088 208 544 208
WIRE -592 304 -592 -288
WIRE -464 304 -464 16
WIRE -96 304 -464 304
WIRE 976 304 976 16
WIRE 976 304 544 304
WIRE -592 400 -592 384
WIRE -96 400 -592 400
WIRE 640 400 544 400
WIRE 704 400 640 400
WIRE 816 400 784 400
WIRE -592 416 -592 400
WIRE 640 416 640 400
WIRE 816 416 816 400
WIRE -176 496 -192 496
WIRE -96 496 -112 496
WIRE 576 496 544 496
WIRE 640 496 640 480
WIRE 816 496 816 480
WIRE -592 512 -592 496
WIRE 32 576 32 560
WIRE 224 576 224 560
WIRE 416 576 416 560
FLAG -304 -288 0
FLAG -784 128 0
FLAG -352 160 0
FLAG -464 -176 0
FLAG -784 -176 0
FLAG -784 -288 OUT
FLAG -784 16 IN
FLAG -592 512 0
FLAG -192 496 0
FLAG 224 576 0
FLAG 832 144 0
FLAG 576 496 0
FLAG 32 576 0
FLAG 416 576 0
FLAG -688 128 0
FLAG -672 -176 0
FLAG 816 496 0
FLAG 640 496 0
SYMBOL cap -320 -352 R0
WINDOW 3 30 56 Left 2
SYMATTR Value 4.7µ
SYMATTR InstName C1
SYMBOL res 656 -288 R90
WINDOW 0 0 56 VBottom 2
WINDOW 3 32 56 VTop 2
SYMATTR InstName R1
SYMATTR Value 100K
SYMBOL voltage -784 16 R0
WINDOW 123 0 0 Left 2
WINDOW 39 0 0 Left 2
SYMATTR InstName V1
SYMATTR Value 14
SYMBOL res -576 32 R270
WINDOW 0 32 56 VTop 2
WINDOW 3 0 56 VBottom 2
SYMATTR InstName R2
SYMATTR Value 4m
SYMBOL ind -464 32 R270
WINDOW 0 32 56 VTop 2
WINDOW 3 5 56 VBottom 2
SYMATTR InstName L1
SYMATTR Value 3.3µ
SYMATTR SpiceLine Rser=2m
SYMBOL nmos -304 -256 M0
WINDOW 0 5 11 Right 2
WINDOW 3 41 111 Right 2
SYMATTR InstName Q1
SYMATTR Value Si4840DY
SYMBOL nmos -304 32 M0
WINDOW 0 -5 21 Right 2
WINDOW 3 24 105 Right 2
SYMATTR InstName Q2
SYMATTR Value Si4840DY
SYMBOL cap -240 -64 R0
SYMATTR InstName C2
SYMATTR Value .1µ
SYMBOL schottky -240 -272 R0
SYMATTR Value MBR0540
SYMATTR InstName D1
SYMATTR Description Diode
SYMATTR Type diode
SYMBOL cap -480 -256 R0
WINDOW 3 36 33 Left 2
WINDOW 123 24 57 Left 2
SYMATTR InstName C3
SYMATTR Value 220µ
SYMATTR SpiceLine Rser=10m
SYMATTR Value2 x2
SYMBOL res -608 400 R0
SYMATTR InstName R3
SYMATTR Value 12.1K
SYMBOL res -608 288 R0
SYMATTR InstName R4
SYMATTR Value 232K
SYMBOL cap -112 480 R90
WINDOW 0 0 32 VBottom 2
WINDOW 3 32 32 VTop 2
SYMATTR InstName C4
SYMATTR Value .005µ
SYMBOL res 1088 32 M270
WINDOW 0 32 56 VTop 2
WINDOW 3 0 56 VBottom 2
SYMATTR InstName R5
SYMATTR Value 4m
SYMBOL ind 960 32 M270
WINDOW 0 32 56 VTop 2
WINDOW 3 5 56 VBottom 2
SYMATTR InstName L2
SYMATTR Value 3.3µ
SYMATTR SpiceLine Rser=2m
SYMBOL nmos 784 -256 R0
WINDOW 0 56 21 Left 2
WINDOW 3 58 77 Left 2
SYMATTR InstName Q3
SYMATTR Value Si4840DY
SYMBOL nmos 784 32 R0
WINDOW 0 57 40 Left 2
WINDOW 3 63 102 Left 2
SYMATTR InstName Q4
SYMATTR Value Si4840DY
SYMBOL cap 640 -64 R0
SYMATTR InstName C5
SYMATTR Value .1µ
SYMBOL schottky 640 -256 R0
WINDOW 3 23 69 Left 2
SYMATTR Value MBR0540
SYMATTR InstName D2
SYMATTR Description Diode
SYMATTR Type diode
SYMBOL PowerProducts\\LTC3784 224 112 R0
SYMATTR InstName U1
SYMBOL cap -704 48 R0
WINDOW 3 36 33 Left 2
WINDOW 123 24 57 Left 2
SYMATTR InstName C6
SYMATTR Value 22µ
SYMATTR SpiceLine Rser=6m
SYMATTR Value2 x2
SYMBOL cap -688 -256 R0
WINDOW 3 36 33 Left 2
WINDOW 123 24 57 Left 2
SYMATTR InstName C7
SYMATTR Value 22µ
SYMATTR SpiceLine Rser=6m
SYMATTR Value2 x8
SYMBOL cap 800 416 R0
SYMATTR InstName C8
SYMATTR Value 15n
SYMBOL res 688 416 R270
WINDOW 0 32 56 VTop 2
WINDOW 3 0 56 VBottom 2
SYMATTR InstName R6
SYMATTR Value 8.66K
SYMBOL cap 624 416 R0
SYMATTR InstName C9
SYMATTR Value 220p
SYMBOL res -800 -288 R0
SYMATTR InstName Rload
SYMATTR Value 2.4
TEXT 936 504 Left 2 !.tran 1.5m startup
TEXT 240 -416 Bottom 2 ;LTC3784 - 60V PolyPhase Synchronous Boost Controller\nHigh Efficiency 2-Phase 24V, 10A Boost Converter\nInput: 5V to 24V     Output: 24V @ 10A
TEXT -368 600 Left 2 ;Notes: \n  A smaller SS capacitor is being used to reduce simulation time. See datasheet for typical values.\n  If the simulation model is not found please update with the "Sync Release" command from the "Tools" menu.\n  It remains the customer's responsibility to verify proper and reliable operation in the actual application.\n  Component substitution and printed circuit board layout may significantly affect circuit performance or reliability.\n  Contact your local sales representative for assistance. This circuit is distributed to customers only for use with LTC parts.\n  Copyright © 2016 Linear Technology Inc.  All rights reserved.
