Version 4
SHEET 1 5956 1012
WIRE -480 -80 -848 -80
WIRE -400 -80 -480 -80
WIRE -304 -80 -400 -80
WIRE -240 -80 -304 -80
WIRE -128 -80 -144 -80
WIRE 32 -80 -128 -80
WIRE 48 -80 32 -80
WIRE 144 -80 128 -80
WIRE 1024 -80 144 -80
WIRE 1136 -80 1024 -80
WIRE 1232 -80 1136 -80
WIRE -848 -64 -848 -80
WIRE -480 -64 -480 -80
WIRE -400 -64 -400 -80
WIRE 1024 -64 1024 -80
WIRE 1136 -64 1136 -80
WIRE 1232 -64 1232 -80
WIRE 272 -32 256 -32
WIRE 368 -32 352 -32
WIRE 400 -32 368 -32
WIRE 496 -32 464 -32
WIRE 640 -16 592 -16
WIRE 912 -16 640 -16
WIRE 640 0 640 -16
WIRE 32 16 32 -80
WIRE 144 16 144 -80
WIRE 256 16 256 -32
WIRE 368 16 368 -32
WIRE 496 16 496 -32
WIRE -848 32 -848 16
WIRE -480 32 -480 0
WIRE -400 32 -400 0
WIRE 1024 32 1024 0
WIRE 1136 32 1136 0
WIRE 1232 32 1232 16
WIRE 912 64 912 -16
WIRE -160 80 -160 -32
WIRE -32 80 -160 80
WIRE 640 96 640 80
WIRE 640 96 560 96
WIRE -128 192 -128 -80
WIRE -32 192 -128 192
WIRE 592 192 592 -16
WIRE 592 192 560 192
WIRE 624 192 592 192
WIRE 704 192 688 192
WIRE -304 208 -304 -80
WIRE 736 240 704 240
WIRE 816 240 800 240
WIRE -304 304 -304 288
WIRE -32 304 -304 304
WIRE 592 304 560 304
WIRE 704 304 704 240
WIRE 704 304 672 304
WIRE 816 304 816 240
WIRE 816 304 768 304
WIRE 832 304 816 304
WIRE -304 320 -304 304
WIRE -128 320 -128 192
WIRE -304 416 -304 400
WIRE -128 416 -128 400
WIRE -32 416 -128 416
WIRE 640 416 560 416
WIRE 736 416 640 416
WIRE 832 416 800 416
WIRE -128 432 -128 416
WIRE 640 432 640 416
WIRE -128 528 -128 512
WIRE -32 528 -64 528
WIRE 640 528 640 512
WIRE 640 528 560 528
WIRE 640 544 640 528
WIRE 144 608 144 592
WIRE 368 608 368 592
WIRE 640 640 640 624
WIRE -64 672 -64 528
WIRE 912 672 912 144
WIRE 912 672 -64 672
FLAG -848 32 0
FLAG 1232 32 0
FLAG 1136 32 0
FLAG 704 192 0
FLAG 832 416 0
FLAG 640 640 0
FLAG 832 304 0
FLAG 368 608 0
FLAG -128 528 0
FLAG -304 416 0
FLAG -480 32 0
FLAG -400 32 0
FLAG 1232 -80 OUT
FLAG -848 -80 IN
FLAG 144 608 0
FLAG 1024 32 0
SYMBOL PowerProducts\\LTC3643 256 304 R0
SYMATTR InstName U1
SYMBOL res 32 -64 R270
WINDOW 0 32 56 VTop 2
WINDOW 3 0 56 VBottom 2
SYMATTR InstName R1
SYMATTR Value 10m
SYMBOL ind 256 -16 R270
WINDOW 0 32 56 VTop 2
WINDOW 3 5 56 VBottom 2
SYMATTR InstName L1
SYMATTR Value 7.2µ
SYMATTR SpiceLine Ipk=6 Rser=0.0113 Rpar=6885.06 Cpar=4.185p mfg="Würth Elektronik" pn="7447798720 WE-PDF 1064"
SYMBOL cap 464 -48 R90
WINDOW 0 0 32 VBottom 2
WINDOW 3 32 32 VTop 2
SYMATTR InstName C1
SYMATTR Value .1µ
SYMBOL pmos -240 -32 R270
WINDOW 0 70 30 VRight 2
WINDOW 3 -12 74 VLeft 2
SYMATTR InstName Q1
SYMATTR Value Si4427DY
SYMBOL cap 688 176 R90
WINDOW 0 0 32 VBottom 2
WINDOW 3 32 32 VTop 2
SYMATTR InstName C3
SYMATTR Value 4.7µ
SYMBOL res 624 416 R0
SYMATTR InstName R2
SYMATTR Value 322K
SYMBOL res 624 528 R0
SYMATTR InstName R3
SYMATTR Value 5.11K
SYMBOL cap 736 432 R270
WINDOW 0 32 32 VTop 2
WINDOW 3 0 32 VBottom 2
SYMATTR InstName Cstorage
SYMATTR Value 10µ
SYMBOL res 688 288 R90
WINDOW 0 0 56 VBottom 2
WINDOW 3 32 56 VTop 2
SYMATTR InstName R4
SYMATTR Value 400K
SYMBOL cap 768 288 R90
WINDOW 0 0 32 VBottom 2
WINDOW 3 32 32 VTop 2
SYMATTR InstName C5
SYMATTR Value 470p
SYMBOL res -144 304 R0
SYMATTR InstName R5
SYMATTR Value 37.4K
SYMBOL res -144 416 R0
SYMATTR InstName R6
SYMATTR Value 5.11K
SYMBOL res -320 192 R0
SYMATTR InstName R7
SYMATTR Value 511K
SYMBOL res -320 304 R0
SYMATTR InstName R8
SYMATTR Value 150K
SYMBOL res 1216 -80 R0
SYMATTR InstName Rload
SYMATTR Value 25
SYMBOL res 896 48 R0
SYMATTR InstName R10
SYMATTR Value 511K
SYMBOL res 624 -16 R0
SYMATTR InstName R11
SYMATTR Value 511K
SYMBOL voltage -848 -80 R0
WINDOW 123 24 138 Left 2
WINDOW 39 24 117 Left 2
SYMATTR Value PWL(0 0 1u 5 2m 5 +20u 0)
SYMATTR InstName V1
SYMBOL polcap -496 -64 R0
SYMATTR InstName C6
SYMATTR Value 47µ
SYMATTR SpiceLine V=10 Irms=510m Rser=0.2 Lser=0 mfg="KEMET" pn="T529P476M010AAE200" type="Tantalum"
SYMBOL cap -416 -64 R0
SYMATTR InstName C7
SYMATTR Value 4.7µ
SYMATTR SpiceLine V=16 Irms=5.51 Rser=0.00764395 Lser=0 mfg="KEMET" pn="C1206C475K4RAC" type="X7R"
SYMBOL cap 800 224 R90
WINDOW 0 0 32 VBottom 2
WINDOW 3 31 16 VTop 2
SYMATTR InstName C4
SYMATTR Value 22p
SYMBOL polcap 1120 -64 R0
WINDOW 3 24 56 Left 2
SYMATTR Value 220µ
SYMATTR InstName C2
SYMATTR Description Capacitor
SYMATTR Type cap
SYMATTR SpiceLine V=10 Irms=0 Rser=0.1 Lser=0 mfg="AVX" pn="TPSE227M010R0100" type="Tantalum"
SYMBOL cap 1008 -64 R0
WINDOW 123 31 60 Left 2
WINDOW 3 42 37 Left 2
SYMATTR Value2 x2
SYMATTR Value 4.7µ
SYMATTR InstName C8
SYMATTR SpiceLine V=16 Irms=5.51 Rser=0.00764395 Lser=0 mfg="KEMET" pn="C1206C475K4RAC" type="X7R"
TEXT 1032 648 Left 2 !.tran 4m startup
TEXT 248 -136 Bottom 2 ;LTC3643 - 2A Bidirectional Power Backup Supply\nBidirectional Charger/Regulator for System Power Backup\nInput: 3V to 17V     Output: 5V @ 200mA
TEXT -888 680 Left 2 ;Note:\n  This simulation demonstrates functionality of the LTC3643 bidirectional power backup supply in the 5V rail application. Input voltage IN is present for the first 2 ms. \n  In this time interval LTC3643 provides low impedance path from the voltage source to the load, keeping P-Ch Q1 ON and the boost converter charges storage capacitor C_Storage to the voltage of 40V.\n  At the time 2ms, input voltage disconnected, the storage capacitor discharges providing energy to the buck converter that keeps load voltage at specified 5V.\n  Q1 transitions to the OFF state isolating load from the voltage source and the PFO flag changes state, signaling power interruption and start of the data backup.\n  LTC3890-2 SENSE Pin Common Mode Range is not dependendent on Vfb making it easy to design a non-synchronous SEPIC Converter with ground-referenced current sensing\n  If the simulation model is not found please update with the "Sync Release" command from the "Tools" menu.\n  It remains the customer's responsibility to verify proper and reliable operation in the actual application.\n  Component substitution and printed circuit board layout may significantly affect circuit performance or reliability.\n  Contact your local sales representative for assistance. This circuit is distributed to customers only for use with LTC parts.\n  Copyright © 2017 Linear Technology Inc. All rights reserved.
