Version 4
SHEET 1 1312 1684
WIRE -656 1040 -656 1024
WIRE -656 1136 -656 1120
WIRE -592 1024 -656 1024
WIRE -496 1024 -528 1024
WIRE -496 1040 -496 1024
WIRE -496 1136 -496 1104
WIRE -480 704 -480 640
WIRE -480 784 -480 704
WIRE -480 864 -480 784
WIRE -448 704 -480 704
WIRE -448 784 -480 784
WIRE -448 864 -480 864
WIRE -448 944 -464 944
WIRE -448 1024 -496 1024
WIRE -272 1104 -272 1072
WIRE -80 784 -96 784
WIRE -80 944 -96 944
WIRE -32 640 -480 640
WIRE -32 704 -96 704
WIRE -32 704 -32 640
WIRE -32 768 -32 704
WIRE -32 864 -96 864
WIRE -32 976 -32 960
WIRE 96 640 -32 640
WIRE 96 672 96 640
WIRE 96 752 96 736
WIRE 96 864 -32 864
WIRE 192 864 176 864
WIRE 192 912 192 864
WIRE 192 1024 -96 1024
WIRE 192 1024 192 992
WIRE 192 1040 192 1024
WIRE 192 1136 192 1120
WIRE 224 640 96 640
WIRE 224 672 224 640
WIRE 224 752 224 736
WIRE 288 864 192 864
WIRE 288 912 288 864
WIRE 288 1024 192 1024
WIRE 288 1024 288 976
WIRE 336 640 224 640
WIRE 336 656 336 640
WIRE 336 768 336 736
WIRE 368 864 288 864
WIRE 368 896 368 864
WIRE 368 992 368 960
WIRE 480 864 368 864
WIRE 480 880 480 864
WIRE 480 992 480 960
FLAG -496 1136 0
FLAG -656 1136 0
FLAG 336 768 0
FLAG -32 976 0
FLAG 368 992 0
FLAG 192 1136 0
FLAG 480 864 OUT
FLAG 480 992 0
FLAG -272 1104 0
FLAG 224 752 0
FLAG 96 752 0
FLAG 336 640 IN
SYMBOL cap -528 1008 R90
WINDOW 0 0 32 VBottom 0
WINDOW 3 32 32 VTop 0
SYMATTR InstName C1
SYMATTR Value 1500p
SYMBOL cap -512 1040 R0
SYMATTR InstName C2
SYMATTR Value 10p
SYMBOL res -672 1024 R0
SYMATTR InstName R1
SYMATTR Value 10K
SYMBOL VOLTAGE 336 640 R0
WINDOW 123 0 0 Left 0
WINDOW 39 0 0 Left 0
SYMATTR InstName V1
SYMATTR Value 3.3
SYMBOL nmos -80 864 R0
SYMATTR InstName Q1
SYMATTR Value Si7540DP_N
SYMBOL res 176 1024 R0
SYMATTR InstName R2
SYMATTR Value 59K
SYMBOL res 176 896 R0
SYMATTR InstName R3
SYMATTR Value 118K
SYMBOL cap 352 896 R0
SYMATTR SpiceLine Rser=0.005
SYMATTR InstName C3
SYMATTR Value 47µ
SYMBOL ind 80 880 R270
WINDOW 0 32 56 VTop 0
WINDOW 3 5 56 VBottom 0
SYMATTR InstName L1
SYMATTR Value 1.5µ
SYMATTR SpiceLine Rser=0.014
SYMBOL pmos -80 864 M180
WINDOW 3 55 35 Left 0
WINDOW 0 57 76 Left 0
SYMATTR Value Si7540DP_P
SYMATTR InstName Q2
SYMBOL cap 208 672 R0
SYMATTR InstName C4
SYMATTR Value 10µ
SYMBOL cap 80 672 R0
SYMATTR InstName C5
SYMATTR Value 10µ
SYMBOL cap 272 912 R0
SYMATTR InstName C6
SYMATTR Value 22p
SYMBOL PowerProducts\\LTC3809-1 -272 864 R0
SYMATTR InstName U1
SYMBOL res 464 864 R0
SYMATTR InstName Rload
SYMATTR Value .6
TEXT 328 1056 Left 0 !.tran 2m startup
TEXT 64 576 Center 0 ;LTC3809-1 - 550KHz, Internal Soft Start, Synchronous Step-down DC/DC Converter, Output Tracking Optional\nInput: 3.3V     Output: 1.8V@3A
TEXT -608 1160 Left 0 ;Note:\n  If the simulation model is not found please update with the "Sync Release" command from the "Tools" menu.\n  It remains the customer's responsibility to verify proper and reliable operation in the actual application.\n  Component substitution and printed circuit board layout may significantly affect circuit performance or reliability\n  Contact your local sales representative for assistance. This circuit is distributed to customers only for use with LTC parts\n  Copyright © 2006 Linear Technology Inc. All rights reserved.
