Version 4
SHEET 1 3300 2452
WIRE 2112 1248 1456 1248
WIRE 1600 1280 1520 1280
WIRE 1696 1280 1600 1280
WIRE 1824 1280 1696 1280
WIRE 1952 1280 1824 1280
WIRE 1520 1312 1520 1280
WIRE 1600 1312 1600 1280
WIRE 1824 1312 1824 1280
WIRE 1952 1312 1952 1280
WIRE 1696 1360 1696 1280
WIRE 1712 1360 1696 1360
WIRE 1520 1408 1520 1392
WIRE 1600 1408 1600 1376
WIRE 1456 1440 1456 1248
WIRE 1712 1440 1456 1440
WIRE 2112 1440 2112 1248
WIRE 2112 1440 2064 1440
WIRE 2304 1440 2112 1440
WIRE 2304 1456 2304 1440
WIRE 1632 1520 1616 1520
WIRE 1712 1520 1696 1520
WIRE 2112 1520 2112 1504
WIRE 2112 1520 2064 1520
WIRE 2304 1536 2304 1520
WIRE 1712 1600 1696 1600
WIRE 2112 1600 2112 1584
WIRE 2112 1600 2064 1600
WIRE 2192 1600 2112 1600
WIRE 2304 1600 2272 1600
WIRE 2352 1600 2304 1600
WIRE 2448 1600 2352 1600
WIRE 2560 1600 2448 1600
WIRE 2560 1616 2560 1600
WIRE 2352 1632 2352 1600
WIRE 2448 1632 2448 1600
WIRE 2304 1680 2304 1600
WIRE 2304 1680 2064 1680
WIRE 2448 1712 2448 1696
WIRE 2560 1712 2560 1696
WIRE 1456 1760 1456 1440
WIRE 1712 1760 1456 1760
WIRE 2352 1760 2352 1712
WIRE 2352 1760 2064 1760
WIRE 2352 1776 2352 1760
WIRE 1616 1840 1600 1840
WIRE 1712 1840 1696 1840
WIRE 2096 1840 2064 1840
WIRE 2144 1840 2096 1840
WIRE 2256 1840 2224 1840
WIRE 2096 1856 2096 1840
WIRE 2256 1856 2256 1840
WIRE 2352 1872 2352 1856
WIRE 1824 1904 1824 1888
WIRE 1952 1904 1952 1888
WIRE 2096 1936 2096 1920
WIRE 2256 1936 2256 1920
FLAG 1952 1904 0
FLAG 1824 1904 0
FLAG 1520 1408 0
FLAG 1600 1840 0
FLAG 2560 1712 0
FLAG 2352 1872 0
FLAG 2448 1712 0
FLAG 2096 1936 0
FLAG 2560 1600 OUT
FLAG 1600 1408 0
FLAG 2256 1936 0
FLAG 1520 1280 IN
FLAG 1696 1600 0
FLAG 2304 1536 0
FLAG 1616 1520 0
SYMBOL ind 2176 1616 R270
WINDOW 0 32 56 VTop 0
WINDOW 3 5 56 VBottom 0
SYMATTR InstName L1
SYMATTR Value 1µ
SYMBOL RES 2336 1616 R0
WINDOW 3 34 76 Left 0
SYMATTR Value 2K
SYMATTR InstName R1
SYMBOL VOLTAGE 1520 1296 R0
WINDOW 3 27 94 Left 0
SYMATTR Value 12
SYMATTR InstName V1
SYMBOL res 2336 1760 R0
SYMATTR InstName R2
SYMATTR Value 1K
SYMBOL res 1712 1824 R90
WINDOW 0 0 56 VBottom 0
WINDOW 3 32 56 VTop 0
SYMATTR InstName R3
SYMATTR Value 162K
SYMBOL res 2240 1824 R90
WINDOW 0 0 56 VBottom 0
WINDOW 3 32 56 VTop 0
SYMATTR InstName R4
SYMATTR Value 16K
SYMBOL cap 2432 1632 R0
SYMATTR InstName C1
SYMATTR Value 100µ
SYMBOL cap 2080 1856 R0
SYMATTR InstName C2
SYMATTR Value 10p
SYMBOL cap 1584 1312 R0
WINDOW 40 30 67 Left 0
WINDOW 3 43 42 Left 0
SYMATTR SpiceLine2 x2
SYMATTR InstName C3
SYMATTR Value 22µ
SYMBOL cap 2240 1856 R0
SYMATTR InstName C4
SYMATTR Value 220p
SYMBOL PowerProducts\\LTC3605 1888 1600 R0
SYMATTR InstName U1
SYMBOL cap 2096 1520 R0
WINDOW 0 41 19 Left 0
WINDOW 3 37 57 Left 0
SYMATTR InstName C5
SYMATTR Value 0.1µ
SYMBOL schottky 2096 1440 R0
WINDOW 0 40 19 Left 0
WINDOW 3 37 54 Left 0
SYMATTR InstName D1
SYMATTR Value CMDSH2-3
SYMATTR Description Diode
SYMATTR Type diode
SYMBOL cap 2288 1456 R0
SYMATTR InstName C6
SYMATTR Value 2.2µ
SYMBOL cap 1696 1504 R90
WINDOW 0 0 32 VBottom 0
WINDOW 3 32 32 VTop 0
SYMATTR InstName C7
SYMATTR Value 0.001µ
SYMBOL RES 2544 1600 R0
WINDOW 3 34 76 Left 0
SYMATTR Value .36
SYMATTR InstName Rload
TEXT 2456 1888 Left 0 !.tran 500u startup
TEXT 1992 1240 Bottom 0 ;LTC3605 - 15V, 5A, 4MHz, Monolithic Synchronous Step-down Regulator\nInput: 12V     Output: 1.8V @ 5A
TEXT 1336 1952 Left 0 ;Note:\n  If the simulation model is not found please update with the "Sync Release" command from the "Tools" menu.\n  It remains the customer's responsibility to verify proper and reliable operation in the actual application.\n  Component substitution and printed circuit board layout may significantly affect circuit performance or reliability\n  Contact your local sales representative for assistance. This circuit is distributed to customers only for use with LTC parts\n  Copyright © 2010 Linear Technology Inc. All rights reserved.
