Version 4
SHEET 1 2156 1152
WIRE 240 -464 224 -464
WIRE 320 -464 304 -464
WIRE 1056 -464 320 -464
WIRE -624 -400 -880 -400
WIRE -512 -400 -624 -400
WIRE -416 -400 -512 -400
WIRE 32 -400 -416 -400
WIRE 640 -400 32 -400
WIRE 752 -400 720 -400
WIRE 784 -400 752 -400
WIRE 880 -400 848 -400
WIRE 944 -400 880 -400
WIRE 1056 -400 1056 -464
WIRE 1056 -400 1008 -400
WIRE 1120 -400 1056 -400
WIRE 1232 -400 1120 -400
WIRE 1344 -400 1232 -400
WIRE -880 -384 -880 -400
WIRE -624 -384 -624 -400
WIRE -512 -384 -512 -400
WIRE 176 -384 -192 -384
WIRE 448 -384 176 -384
WIRE 544 -384 448 -384
WIRE 592 -384 544 -384
WIRE 1120 -384 1120 -400
WIRE 1232 -384 1232 -400
WIRE 1344 -384 1344 -400
WIRE 416 -368 -64 -368
WIRE 592 -368 592 -384
WIRE 880 -368 880 -400
WIRE 32 -352 32 -400
WIRE 176 -352 176 -384
WIRE 320 -352 320 -464
WIRE 448 -336 448 -384
WIRE -880 -288 -880 -304
WIRE -624 -288 -624 -320
WIRE -512 -288 -512 -304
WIRE -64 -288 -64 -368
WIRE -64 -288 -512 -288
WIRE -48 -288 -64 -288
WIRE 416 -288 416 -368
WIRE 416 -288 400 -288
WIRE 592 -288 592 -304
WIRE 1120 -288 1120 -320
WIRE 1232 -288 1232 -320
WIRE 1344 -288 1344 -304
WIRE 880 -256 880 -288
WIRE -512 -192 -512 -208
WIRE -192 -192 -192 -384
WIRE -160 -192 -192 -192
WIRE -48 -192 -80 -192
WIRE 448 -192 448 -256
WIRE 448 -192 400 -192
WIRE -416 -176 -416 -400
WIRE 752 -176 752 -400
WIRE -48 -96 -368 -96
WIRE 704 -96 400 -96
WIRE -192 -80 -192 -192
WIRE 752 -64 752 -80
WIRE 752 -64 640 -64
WIRE 752 -48 752 -64
WIRE -192 0 -192 -16
WIRE -48 0 -192 0
WIRE 544 0 544 -384
WIRE 544 0 400 0
WIRE -192 16 -192 0
WIRE 544 16 544 0
WIRE 752 48 752 32
WIRE 752 48 688 48
WIRE 752 64 752 48
WIRE -784 96 -896 96
WIRE -688 96 -784 96
WIRE -672 96 -688 96
WIRE -576 96 -592 96
WIRE -544 96 -576 96
WIRE -416 96 -416 -80
WIRE -416 96 -464 96
WIRE -192 96 -192 80
WIRE -192 96 -416 96
WIRE -48 96 -192 96
WIRE 544 96 544 80
WIRE 544 96 400 96
WIRE -896 112 -896 96
WIRE -784 112 -784 96
WIRE -416 112 -416 96
WIRE 544 112 544 96
WIRE -48 192 -368 192
WIRE -896 208 -896 192
WIRE -784 208 -784 176
WIRE -416 224 -416 208
WIRE -576 288 -576 96
WIRE -48 288 -576 288
WIRE 480 288 400 288
WIRE 528 288 480 288
WIRE 640 288 640 -64
WIRE 640 288 608 288
WIRE 480 304 480 288
WIRE -688 384 -688 96
WIRE -112 384 -688 384
WIRE -48 384 -112 384
WIRE 480 384 480 368
WIRE 480 384 400 384
WIRE 528 384 480 384
WIRE 688 384 688 48
WIRE 688 384 608 384
WIRE 1056 384 1056 -400
WIRE -112 400 -112 384
WIRE -688 480 -688 464
WIRE -112 480 -112 464
WIRE -112 480 -688 480
WIRE -48 480 -112 480
WIRE 1056 480 1056 464
WIRE 1056 480 400 480
WIRE -688 496 -688 480
WIRE 1056 496 1056 480
WIRE -240 576 -256 576
WIRE -160 576 -176 576
WIRE -48 576 -80 576
WIRE 432 576 400 576
WIRE 528 576 512 576
WIRE 608 576 592 576
WIRE -688 592 -688 576
WIRE 1056 592 1056 576
WIRE -144 672 -160 672
WIRE -48 672 -80 672
WIRE 432 672 400 672
WIRE 512 672 496 672
WIRE 416 768 400 768
WIRE 512 768 496 768
WIRE 32 944 32 928
WIRE 320 944 320 928
FLAG 32 944 0
FLAG 320 944 0
FLAG 592 -288 0
FLAG -416 224 0
FLAG -784 208 0
FLAG -688 592 0
FLAG -896 208 0
FLAG -256 576 0
FLAG -160 672 0
FLAG -896 96 OUT_3.3V
FLAG -512 -192 0
FLAG 512 768 0
FLAG 752 64 0
FLAG 880 -256 0
FLAG 1056 592 0
FLAG 1120 -288 0
FLAG 1232 -288 0
FLAG 1344 -288 0
FLAG 544 112 0
FLAG 1344 -400 OUT_12V
FLAG 224 -464 0
FLAG -880 -288 0
FLAG -880 -400 IN
FLAG 512 672 0
FLAG 608 576 0
FLAG -624 -288 0
SYMBOL cap 576 -368 R0
SYMATTR InstName C1
SYMATTR Value 4.7µ
SYMBOL schottky -208 -80 R0
SYMATTR InstName D2
SYMATTR Value RB160L-60
SYMATTR Description Diode
SYMATTR Type diode
SYMBOL cap -208 16 R0
SYMATTR InstName C6
SYMATTR Value .1µ
SYMBOL ind -448 112 M270
WINDOW 0 32 56 VTop 2
WINDOW 3 5 56 VBottom 2
SYMATTR InstName L3
SYMATTR Value 2.3µ
SYMATTR SpiceLine Ipk=17 Rser=0.0036 Rpar=2323 Cpar=6p mfg="Würth Elektronik" pn="7443550230 WE-HCI 1350"
SYMBOL res -576 112 M270
WINDOW 0 32 56 VTop 2
WINDOW 3 0 56 VBottom 2
SYMATTR InstName R4
SYMATTR Value 3m
SYMBOL polcap -800 112 R0
WINDOW 123 26 61 Left 2
WINDOW 3 36 36 Left 2
SYMATTR Value2 x2
SYMATTR Value 220µ
SYMATTR InstName C7
SYMATTR SpiceLine V=6.3 Irms=6.12372 Rser=0.006 Lser=0 mfg="KEMET" pn="T520D227M006ATE006" type="Tantalum"
SYMATTR Description Capacitor
SYMATTR Type cap
SYMBOL res -704 368 R0
SYMATTR InstName R5
SYMATTR Value 100K
SYMBOL res -704 480 R0
SYMATTR InstName R6
SYMATTR Value 31.6K
SYMBOL cap -80 688 M270
WINDOW 0 32 32 VTop 2
WINDOW 3 0 32 VBottom 2
SYMATTR InstName C9
SYMATTR Value .002µ
SYMBOL res -912 96 R0
SYMATTR InstName Rload
SYMATTR Value .33
SYMBOL PowerProducts\\LTC3890-2 176 288 R0
SYMATTR InstName U1
SYMBOL res -528 -400 R0
SYMATTR InstName R7
SYMATTR Value 511K
SYMBOL res -528 -304 R0
SYMATTR InstName R8
SYMATTR Value 73.2K
SYMBOL res -176 -176 R270
WINDOW 0 32 56 VTop 2
WINDOW 3 0 56 VBottom 2
SYMATTR InstName R9
SYMATTR Value 511K
SYMBOL nmos -368 112 M0
WINDOW 3 -4 55 Right 2
WINDOW 0 -2 29 Right 2
SYMATTR Value RJK0651DPB
SYMATTR InstName Q3
SYMBOL nmos -368 -176 M0
WINDOW 0 -2 30 Right 2
WINDOW 3 -4 57 Right 2
SYMATTR InstName Q4
SYMATTR Value RJK0651DPB
SYMBOL res 400 784 R270
WINDOW 0 32 56 VTop 2
WINDOW 3 0 56 VBottom 2
SYMATTR InstName R10
SYMATTR Value 44.2K
SYMBOL cap -128 400 R0
SYMATTR InstName C4
SYMATTR Value 10p
SYMBOL nmos 704 -176 R0
WINDOW 0 59 31 Left 2
WINDOW 3 58 63 Left 2
SYMATTR InstName Q1
SYMATTR Value BSC067N06LS3
SYMBOL res 736 -64 R0
SYMATTR InstName R1
SYMATTR Value 5m
SYMBOL cap 784 -384 R270
WINDOW 0 32 32 VTop 2
WINDOW 3 0 32 VBottom 2
WINDOW 123 -21 32 VBottom 2
SYMATTR InstName C2
SYMATTR Value 4.7µ
SYMATTR Value2 x2
SYMATTR SpiceLine V=50 Irms=0 Rser=0.004 Lser=0 mfg="TDK" pn="C575OX7RIH475M" type="X7R"
SYMBOL schottky 944 -384 R270
WINDOW 0 32 32 VTop 2
WINDOW 3 0 32 VBottom 2
SYMATTR InstName D1
SYMATTR Value PDS760
SYMATTR Description Diode
SYMATTR Type diode
SYMBOL res 1040 368 R0
SYMATTR InstName R2
SYMATTR Value 100K
SYMBOL res 1040 480 R0
SYMATTR InstName R3
SYMATTR Value 7.15K
SYMBOL polcap 1104 -384 R0
WINDOW 3 41 34 Left 2
WINDOW 123 30 57 Left 2
SYMATTR Value 220µ
SYMATTR Value2 x2
SYMATTR InstName C3
SYMATTR Description Capacitor
SYMATTR Type cap
SYMATTR SpiceLine V=16 Irms=2.65653 Rser=0.035 Lser=0 mfg="KEMET" pn="T521X227M016ATE035" type="Tantalum"
SYMBOL cap 1216 -384 R0
WINDOW 123 29 57 Left 2
WINDOW 3 39 34 Left 2
SYMATTR Value2 x4
SYMATTR Value 10µ
SYMATTR InstName C5
SYMATTR SpiceLine V=10 Irms=8.919 Rser=0.005 Lser=0 mfg="KEMET" pn="C1210C106K8PAC" type="X5R"
SYMBOL res 1328 -400 R0
SYMATTR InstName Rload1
SYMATTR Value 4
SYMBOL ind 624 -384 R270
WINDOW 0 32 56 VTop 2
WINDOW 3 5 56 VBottom 2
SYMATTR InstName L1
SYMATTR Value 15µ
SYMATTR SpiceLine Ipk=5 Rser=0.024 Rpar=13382 Cpar=10p mfg="Würth Elektronik" pn="744770115 WE-PD 1280"
SYMBOL ind 864 -272 M180
WINDOW 0 36 80 Left 2
WINDOW 3 36 40 Left 2
SYMATTR InstName L2
SYMATTR Value 15µ
SYMATTR SpiceLine Ipk=5 Rser=0.024 Rpar=13382 Cpar=10p mfg="Würth Elektronik" pn="744770115 WE-PD 1280"
SYMBOL res 432 -352 R0
SYMATTR InstName R11
SYMATTR Value 511K
SYMBOL cap 528 16 R0
SYMATTR InstName C10
SYMATTR Value .1µ
SYMBOL cap 240 -448 R270
WINDOW 0 32 32 VTop 2
WINDOW 3 0 32 VBottom 2
SYMATTR InstName C11
SYMATTR Value 1µ
SYMBOL voltage -880 -400 R0
WINDOW 123 26 120 Left 2
WINDOW 39 27 143 Left 2
SYMATTR Value2 2.5m 14 +0.1m 10
SYMATTR SpiceLine +1m 10 +0.1m 18)
SYMATTR Value PWL(0 0 5u 14
SYMATTR InstName V1
SYMBOL cap 496 688 M270
WINDOW 0 32 32 VTop 2
WINDOW 3 0 32 VBottom 2
SYMATTR InstName C12
SYMATTR Value .002µ
SYMBOL res -64 560 R90
WINDOW 0 0 56 VBottom 2
WINDOW 3 32 56 VTop 2
SYMATTR InstName R12
SYMATTR Value 9.76K
SYMBOL cap -176 560 R90
WINDOW 0 0 32 VBottom 2
WINDOW 3 32 32 VTop 2
SYMATTR InstName C8
SYMATTR Value 4.7n
SYMBOL res 528 560 R90
WINDOW 0 0 56 VBottom 2
WINDOW 3 32 56 VTop 2
SYMATTR InstName R13
SYMATTR Value 7.5K
SYMBOL cap 592 560 R90
WINDOW 0 0 32 VBottom 2
WINDOW 3 32 32 VTop 2
SYMATTR InstName C13
SYMATTR Value 6800p
SYMBOL cap -640 -384 R0
WINDOW 3 37 33 Left 2
WINDOW 123 31 54 Left 2
SYMATTR Value 4.7µ
SYMATTR Value2 x4
SYMATTR InstName C14
SYMBOL cap 464 304 R0
SYMATTR InstName C15
SYMATTR Value 1n
SYMBOL res 624 272 R90
WINDOW 0 0 56 VBottom 2
WINDOW 3 32 56 VTop 2
SYMATTR InstName R14
SYMATTR Value 10
SYMBOL res 624 368 R90
WINDOW 0 0 56 VBottom 2
WINDOW 3 32 56 VTop 2
SYMATTR InstName R15
SYMATTR Value 0
TEXT 888 720 Left 2 !.tran 4m startup
TEXT -592 960 Left 2 ;Note:\n  LTC3890-2 SENSE Pin Common Mode Range is not dependendent on Vfb making it easy to design a non-synchronous SEPIC Converter with ground-referenced current sensing\n  If the simulation model is not found please update with the "Sync Release" command from the "Tools" menu.\n  It remains the customer's responsibility to verify proper and reliable operation in the actual application.\n  Component substitution and printed circuit board layout may significantly affect circuit performance or reliability.\n  Contact your local sales representative for assistance. This circuit is distributed to customers only for use with LTC parts.\n  Copyright © 2017 Linear Technology Inc. All rights reserved.
TEXT 104 -512 Bottom 2 ;LTC3890-2 - 60V Low IQ, Dual, 2-Phase Synchronous Step-Down DC/DC Controller\nAutomotive 12V SEPIC and 3.3V Step-Down Converter\nInput: 10V to 18V     Output: 12V @ 3A & 3.3V @ 10A
