Version 4
SHEET 1 1520 1044
WIRE 432 -144 -16 -144
WIRE -208 -64 -320 -64
WIRE -112 -64 -208 -64
WIRE 64 -64 -112 -64
WIRE 80 -64 64 -64
WIRE 432 -64 432 -144
WIRE 432 -64 368 -64
WIRE 448 -64 432 -64
WIRE 528 -64 512 -64
WIRE -320 -48 -320 -64
WIRE -208 -48 -208 -64
WIRE -112 -48 -112 -64
WIRE 64 32 64 -64
WIRE 80 32 64 32
WIRE 432 32 432 -64
WIRE 432 32 368 32
WIRE -320 48 -320 32
WIRE -208 48 -208 16
WIRE -112 48 -112 16
WIRE 64 128 64 32
WIRE 80 128 64 128
WIRE 432 128 432 32
WIRE 432 128 368 128
WIRE -16 224 -16 -144
WIRE 64 224 64 128
WIRE 80 224 64 224
WIRE 384 224 368 224
WIRE 432 224 432 128
WIRE -16 320 -16 304
WIRE 80 320 -16 320
WIRE 432 320 432 304
WIRE 432 320 368 320
WIRE -288 416 -720 416
WIRE -176 416 -288 416
WIRE -96 416 -176 416
WIRE -32 416 -96 416
WIRE 80 416 48 416
WIRE 400 416 368 416
WIRE 528 416 480 416
WIRE 624 416 528 416
WIRE 752 416 624 416
WIRE 880 416 752 416
WIRE -96 432 -96 416
WIRE 528 432 528 416
WIRE 624 432 624 416
WIRE -720 448 -720 416
WIRE -288 448 -288 416
WIRE -176 448 -176 416
WIRE 752 448 752 416
WIRE 880 448 880 416
WIRE 80 512 0 512
WIRE 448 512 368 512
WIRE -176 528 -176 512
WIRE -96 528 -96 512
WIRE -96 528 -176 528
WIRE 0 528 0 512
WIRE 0 528 -96 528
WIRE 448 528 448 512
WIRE 528 528 528 512
WIRE 528 528 448 528
WIRE 624 528 624 496
WIRE 624 528 528 528
WIRE -720 544 -720 528
WIRE -288 544 -288 512
WIRE -96 544 -96 528
WIRE 528 544 528 528
WIRE 752 544 752 512
WIRE 880 544 880 528
WIRE 224 592 224 576
WIRE -96 640 -96 624
WIRE 528 640 528 624
FLAG -320 48 0
FLAG 528 -64 0
FLAG 384 224 0
FLAG 224 592 0
FLAG -720 416 OUT1
FLAG 880 416 OUT2
FLAG -208 48 0
FLAG -112 48 0
FLAG -96 640 0
FLAG -288 544 0
FLAG -720 544 0
FLAG 528 640 0
FLAG 752 544 0
FLAG 880 544 0
FLAG -320 -64 IN
SYMBOL LTC3622 224 224 R0
SYMATTR InstName U1
SYMBOL VOLTAGE -320 -64 R0
WINDOW 3 27 94 Left 2
SYMATTR Value 12
SYMATTR InstName V1
SYMBOL cap -128 -48 R0
WINDOW 40 24 92 Left 2
SYMATTR InstName C1
SYMATTR Value 10µ
SYMBOL polcap -224 -48 R0
SYMATTR InstName C2
SYMATTR Value 22µ
SYMBOL cap 448 -48 R270
WINDOW 0 32 32 VTop 2
WINDOW 3 0 32 VBottom 2
SYMATTR InstName C3
SYMATTR Value 1µ
SYMBOL res -32 208 R0
SYMATTR InstName R1
SYMATTR Value 100K
SYMBOL res 416 208 R0
SYMATTR InstName R2
SYMATTR Value 100K
SYMBOL ind 64 432 M270
WINDOW 0 32 56 VTop 2
WINDOW 3 5 56 VBottom 2
SYMATTR InstName L1
SYMATTR Value 3.3µ
SYMATTR SpiceLine Rser=0.0383
SYMBOL cap -304 448 R0
WINDOW 3 23 56 Left 2
SYMATTR Value 47µ
SYMATTR InstName C4
SYMBOL RES -112 416 R0
WINDOW 3 34 76 Left 2
SYMATTR Value 619K
SYMATTR InstName R3
SYMBOL RES -112 528 R0
WINDOW 3 34 76 Left 2
SYMATTR Value 137K
SYMATTR InstName R4
SYMBOL cap -192 448 R0
SYMATTR InstName C5
SYMATTR Value 22p
SYMBOL ind 384 432 R270
WINDOW 0 32 56 VTop 2
WINDOW 3 5 56 VBottom 2
SYMATTR InstName L2
SYMATTR Value 4.7µ
SYMATTR SpiceLine Rser=0.0574
SYMBOL RES 512 416 R0
WINDOW 3 34 76 Left 2
SYMATTR Value 619K
SYMATTR InstName R5
SYMBOL RES 512 528 R0
WINDOW 3 34 76 Left 2
SYMATTR Value 84.5K
SYMATTR InstName R6
SYMBOL cap 608 432 R0
SYMATTR InstName C6
SYMATTR Value 22p
SYMBOL cap 736 448 R0
WINDOW 3 23 56 Left 2
SYMATTR Value 47µ
SYMATTR InstName C7
SYMBOL load2 -720 448 R0
WINDOW 123 25 114 Left 2
WINDOW 39 45 34 Left 2
SYMATTR SpiceLine load
SYMATTR Value PULSE(0.1 1 1m 5n 5n 250u 1m)
SYMATTR InstName I1
SYMBOL load2 880 448 R0
WINDOW 123 25 114 Left 2
WINDOW 39 48 36 Left 2
SYMATTR SpiceLine load
SYMATTR Value PULSE(0.1 1 1m 5n 5n 250u 1m)
SYMATTR InstName I2
TEXT 736 624 Left 2 !.tran 1.5m startup
TEXT 224 -160 Bottom 2 ;LTC3622 - 17V, Dual 1A Synchronous Step-Down Regulator with Ultralow Quiescent Current\nDual Monolithic Synchronous Buck Regulator\nInput: 5V to 17V     Output: 3.3V @ 1A and 5V @ 1A, Fsw = 1MHz
TEXT -360 664 Left 2 ;Note:\n  If the simulation model is not found please update with the "Sync Release" command from the "Tools" menu.\n  It remains the customer's responsibility to verify proper and reliable operation in the actual application.\n  Component substitution and printed circuit board layout may significantly affect circuit performance or reliability\n  Contact your local sales representative for assistance. This circuit is distributed to customers only for use with LTC parts\n  Copyright © 2014 Linear Technology Inc. All rights reserved.
