Version 4
SHEET 1 1720 1300
WIRE 176 32 64 32
WIRE 384 32 176 32
WIRE 560 32 384 32
WIRE 928 32 560 32
WIRE 64 48 64 32
WIRE 176 48 176 32
WIRE 672 48 352 48
WIRE 784 48 672 48
WIRE 1024 48 784 48
WIRE 1120 48 1024 48
WIRE 560 64 560 32
WIRE 672 64 672 48
WIRE 784 64 784 48
WIRE 1120 64 1120 48
WIRE 384 128 384 32
WIRE 480 128 384 128
WIRE 928 128 928 32
WIRE 928 128 864 128
WIRE 64 144 64 128
WIRE 176 144 176 112
WIRE 1120 144 1120 128
WIRE 384 224 384 128
WIRE 480 224 384 224
WIRE 928 224 928 128
WIRE 928 224 864 224
WIRE 384 240 384 224
WIRE 928 240 928 224
WIRE 480 320 384 320
WIRE 928 320 864 320
WIRE 480 416 128 416
WIRE 1200 416 864 416
WIRE 480 512 400 512
WIRE 944 512 864 512
WIRE 400 528 400 512
WIRE 944 528 944 512
WIRE 16 608 -112 608
WIRE 128 608 128 416
WIRE 128 608 16 608
WIRE 192 608 128 608
WIRE 400 608 400 592
WIRE 400 608 272 608
WIRE 480 608 400 608
WIRE 944 608 944 592
WIRE 944 608 864 608
WIRE 1056 608 944 608
WIRE 1200 608 1200 416
WIRE 1200 608 1136 608
WIRE 1344 608 1200 608
WIRE 1440 608 1344 608
WIRE -112 624 -112 608
WIRE 16 624 16 608
WIRE 128 624 128 608
WIRE 1200 624 1200 608
WIRE 1344 624 1344 608
WIRE 1440 624 1440 608
WIRE 480 704 128 704
WIRE 1200 704 864 704
WIRE -112 720 -112 704
WIRE 16 720 16 688
WIRE 128 720 128 704
WIRE 1200 720 1200 704
WIRE 1344 720 1344 688
WIRE 1440 720 1440 704
WIRE 352 800 352 48
WIRE 480 800 352 800
WIRE 1024 800 1024 48
WIRE 1024 800 864 800
WIRE 128 816 128 800
WIRE 1200 816 1200 800
WIRE 400 896 384 896
WIRE 480 896 464 896
WIRE 880 896 864 896
WIRE 960 896 944 896
WIRE 352 992 352 800
WIRE 480 992 352 992
WIRE 1024 992 1024 800
WIRE 1024 992 864 992
WIRE 592 1072 592 1056
WIRE 752 1072 752 1056
FLAG 64 144 0
FLAG 128 816 0
FLAG 592 1072 0
FLAG 752 1072 0
FLAG 16 720 0
FLAG -112 720 0
FLAG -112 608 OUT1
FLAG 1200 816 0
FLAG 1344 720 0
FLAG 1440 720 0
FLAG 1440 608 OUT2
FLAG 64 32 IN
FLAG 176 144 0
FLAG 1120 144 0
FLAG 384 896 0
FLAG 960 896 0
SYMBOL voltage 64 32 R0
SYMATTR InstName V1
SYMATTR Value 12
SYMBOL cap 1104 128 M180
WINDOW 0 24 64 Left 2
WINDOW 3 24 8 Left 2
SYMATTR InstName C4
SYMATTR Value 2.2µ
SYMBOL ind 288 624 M270
WINDOW 0 32 56 VTop 2
WINDOW 3 5 56 VBottom 2
SYMATTR InstName L1
SYMATTR Value .68µ
SYMBOL cap 384 528 R0
SYMATTR InstName C5
SYMATTR Value .1µ
SYMBOL res 112 608 R0
SYMATTR InstName R1
SYMATTR Value 20K
SYMBOL res 112 704 R0
SYMATTR InstName R3
SYMATTR Value 10K
SYMBOL cap 0 624 R0
WINDOW 0 24 6 Left 2
SYMATTR InstName C1
SYMATTR Value 47µ
SYMATTR SpiceLine V=6.3 Irms=0 Rser=0.002 Lser=0 mfg="TDK" pn="C4532X5ROJ47@M" type="X5R"
SYMBOL ind 1040 624 R270
WINDOW 0 32 56 VTop 2
WINDOW 3 5 56 VBottom 2
SYMATTR InstName L2
SYMATTR Value 1µ
SYMBOL cap 928 528 R0
SYMATTR InstName C6
SYMATTR Value .1µ
SYMBOL res 1184 608 R0
SYMATTR InstName R2
SYMATTR Value 45.3K
SYMBOL res 1184 704 R0
SYMATTR InstName R4
SYMATTR Value 10K
SYMBOL cap 1328 624 R0
SYMATTR InstName C2
SYMATTR Value 47µ
SYMATTR SpiceLine V=6.3 Irms=0 Rser=0.0008 Lser=0 mfg="TDK" pn="C3225X5ROJ226M" type="X5R"
SYMBOL cap 160 48 R0
WINDOW 40 33 64 Left 2
WINDOW 3 39 35 Left 2
SYMATTR SpiceLine2 x2
SYMATTR Value 47µ
SYMATTR InstName C3
SYMATTR SpiceLine V=6.3 Irms=0 Rser=0.002 Lser=0 mfg="TDK" pn="C4532X5ROJ47@M" type="X5R"
SYMBOL res -128 608 R0
SYMATTR InstName Rload1
SYMATTR Value .6
SYMBOL res 1424 608 R0
SYMATTR InstName Rload2
SYMATTR Value 1.1
SYMBOL res 368 224 R0
SYMATTR InstName R5
SYMATTR Value 100K
SYMBOL res 912 224 R0
SYMATTR InstName R8
SYMATTR Value 100K
SYMBOL cap 464 880 R90
WINDOW 0 0 32 VBottom 2
WINDOW 3 32 32 VTop 2
SYMATTR InstName C7
SYMATTR Value 1.2n
SYMBOL cap 944 880 R90
WINDOW 0 0 32 VBottom 2
WINDOW 3 32 32 VTop 2
SYMATTR InstName C8
SYMATTR Value 1.2n
SYMBOL LTC3633A-2 672 560 R0
SYMATTR InstName U1
TEXT 1216 920 Left 2 !.tran .64m startup
TEXT 72 1080 Left 2 ;Note:\n  If the simulation model is not found please update with the "Sync Release" command from the "Tools" menu.\n  It remains the customer's responsibility to verify proper and reliable operation in the actual application.\n  Component substitution and printed circuit board layout may significantly affect circuit performance or reliability\n  Contact your local sales representative for assistance. This circuit is distributed to customers only for use with LTC parts\n  Copyright © 2014 Linear Technology Inc. All rights reserved.
TEXT 664 0 Bottom 2 ;LTC3633A-2: Dual Channel 3A, 20V Monolithic Synchronous Step-Down Regulator\n1.8V/3.3V Buck Regulator\nInput: 3.6V to 20V       Output 1.8V @ 3A & 3.3V @ 3A    Fsw = 2MHz
