Version 4
SHEET 1 1248 680
WIRE 112 64 -48 64
WIRE 320 64 192 64
WIRE -144 160 -240 160
WIRE -48 160 -48 64
WIRE -48 160 -144 160
WIRE 32 160 -48 160
WIRE 320 160 320 64
WIRE 320 160 288 160
WIRE -240 176 -240 160
WIRE -144 176 -144 160
WIRE -240 272 -240 256
WIRE -144 272 -144 240
WIRE -48 304 -48 160
WIRE 32 304 -48 304
WIRE 320 304 288 304
WIRE 416 304 320 304
WIRE -48 320 -48 304
WIRE 320 320 320 304
WIRE 416 320 416 304
WIRE 160 400 160 368
WIRE -48 416 -48 400
WIRE 320 416 320 384
WIRE 416 416 416 400
FLAG 320 416 0
FLAG 160 400 0
FLAG -240 272 0
FLAG 416 416 0
FLAG -144 272 0
FLAG -48 416 0
FLAG -240 160 IN
FLAG 416 304 OUT
SYMBOL ind 96 80 R270
WINDOW 0 32 56 VTop 2
WINDOW 3 5 56 VBottom 2
SYMATTR InstName L1
SYMATTR Value 10µ
SYMBOL voltage -240 160 R0
WINDOW 123 0 0 Left 2
WINDOW 39 0 0 Left 2
SYMATTR InstName V1
SYMATTR Value 4
SYMBOL PowerProducts\\LTC3525-5 160 208 R0
SYMATTR InstName U1
SYMBOL res -64 304 R0
SYMATTR InstName R1
SYMATTR Value 2.2Meg
SYMBOL res 400 304 R0
SYMATTR InstName Rload
SYMATTR Value 28
SYMBOL cap -160 176 R0
SYMATTR InstName C1
SYMATTR Value 3.3µ
SYMBOL cap 304 320 R0
SYMATTR InstName C2
SYMATTR Value 10µ
SYMATTR SpiceLine Rser=0.001
TEXT 472 416 Left 2 !.tran 1m startup
TEXT -408 424 Left 2 ;Note:\n  If the simulation model is not found please update with the "Sync Release" command from the "Tools" menu.\n  It remains the customer's responsibility to verify proper and reliable operation in the actual application.\n  Component substitution and printed circuit board layout may significantly affect circuit performance or reliability.\n  Contact your local sales representative for assistance. This circuit is distributed to customers only for use with LTC parts.\n  Copyright © 2013 Linear Technology Inc. All rights reserved.
TEXT 176 24 Bottom 2 ;LTC3525-5 - 400mA µPower Synchronous Step-Up DC/DC Converter with Output Disconnect\nCompact, High Efficiency Boost for Single Cell Li-Ion\nInput: 3V to 4.2V       Output: 5V @ 175mA
