Version 4
SHEET 1 2132 1380
WIRE 32 128 -176 128
WIRE 208 128 32 128
WIRE 304 128 208 128
WIRE 400 128 304 128
WIRE 576 128 400 128
WIRE -176 144 -176 128
WIRE 208 144 208 128
WIRE 304 144 304 128
WIRE 400 144 400 128
WIRE 32 192 32 128
WIRE 80 192 32 192
WIRE 576 192 576 128
WIRE 576 192 528 192
WIRE -176 240 -176 224
WIRE 32 288 32 192
WIRE 80 288 32 288
WIRE 576 288 576 192
WIRE 576 288 528 288
WIRE -336 480 -464 480
WIRE -256 480 -336 480
WIRE -144 480 -256 480
WIRE -80 480 -144 480
WIRE 32 480 0 480
WIRE 80 480 32 480
WIRE 608 480 528 480
WIRE 720 480 688 480
WIRE 816 480 720 480
WIRE 928 480 816 480
WIRE 1040 480 928 480
WIRE -464 496 -464 480
WIRE -336 496 -336 480
WIRE 928 496 928 480
WIRE 1040 496 1040 480
WIRE 816 528 816 480
WIRE -256 544 -256 480
WIRE -144 544 -144 480
WIRE 720 544 720 480
WIRE 80 576 64 576
WIRE 544 576 528 576
WIRE -464 592 -464 576
WIRE -336 592 -336 560
WIRE 928 592 928 560
WIRE 1040 592 1040 576
WIRE -256 672 -256 624
WIRE -144 672 -144 608
WIRE -144 672 -256 672
WIRE 80 672 -144 672
WIRE 720 672 720 608
WIRE 720 672 528 672
WIRE 816 672 816 608
WIRE 816 672 720 672
WIRE 816 688 816 672
WIRE -256 704 -256 672
WIRE -112 768 -144 768
WIRE 80 768 -48 768
WIRE 672 768 528 768
WIRE 752 768 736 768
WIRE -256 864 -256 784
WIRE 80 864 -256 864
WIRE 816 864 816 768
WIRE 816 864 528 864
WIRE -256 880 -256 864
WIRE 816 880 816 864
WIRE -256 976 -256 960
WIRE 816 976 816 960
WIRE 32 1056 32 480
WIRE 80 1056 32 1056
WIRE 576 1056 576 288
WIRE 576 1056 528 1056
WIRE 80 1152 64 1152
WIRE 576 1152 576 1056
WIRE 576 1152 528 1152
WIRE 240 1216 240 1200
WIRE 368 1216 368 1200
FLAG -144 768 0
FLAG -256 976 0
FLAG -336 592 0
FLAG -176 240 0
FLAG 64 576 0
FLAG -464 592 0
FLAG 64 1152 0
FLAG 240 1216 0
FLAG 368 1216 0
FLAG 752 768 0
FLAG 816 976 0
FLAG 928 592 0
FLAG 544 576 0
FLAG 1040 592 0
FLAG -176 128 IN
FLAG -464 480 OUT1
FLAG 1040 480 OUT2
SYMBOL ind 16 496 M270
WINDOW 0 32 56 VTop 0
WINDOW 3 5 56 VBottom 0
SYMATTR InstName L1
SYMATTR Value 1µ
SYMBOL cap -48 752 R90
WINDOW 0 0 32 VBottom 0
WINDOW 3 32 32 VTop 0
WINDOW 39 60 32 VTop 0
SYMATTR InstName C2
SYMATTR Value 1000p
SYMATTR SpiceLine Rser=6.2K Cpar=10p
SYMBOL voltage -176 128 R0
SYMATTR InstName V1
SYMATTR Value 5
SYMBOL PowerProducts\\LTC3546 304 672 R0
SYMATTR InstName U1
SYMBOL res -272 528 R0
SYMATTR InstName R1
SYMATTR Value 316K
SYMBOL res -272 688 R0
SYMATTR InstName R2
SYMATTR Value 49.9K
SYMBOL cap -160 544 R0
SYMATTR InstName C3
SYMATTR Value 10p
SYMBOL ind 592 496 R270
WINDOW 0 32 56 VTop 0
WINDOW 3 5 56 VBottom 0
SYMATTR InstName L2
SYMATTR Value 1µ
SYMBOL cap 672 752 M90
WINDOW 0 0 32 VBottom 0
WINDOW 3 32 32 VTop 0
WINDOW 39 60 32 VTop 0
SYMATTR InstName C5
SYMATTR Value 1000p
SYMATTR SpiceLine Rser=3.3K Cpar=10p
SYMBOL res 800 512 R0
SYMATTR InstName R3
SYMATTR Value 200K
SYMBOL res 800 672 R0
SYMATTR InstName R4
SYMATTR Value 49.9K
SYMBOL cap 704 544 R0
SYMATTR InstName C6
SYMATTR Value 33p
SYMBOL res -480 480 R0
SYMATTR InstName Rload1
SYMATTR Value 1.2
SYMBOL res 1024 480 R0
SYMATTR InstName Rload2
SYMATTR Value .9
SYMBOL res 800 864 R0
SYMATTR InstName R5
SYMATTR Value 49.9K
SYMBOL res -272 864 R0
SYMATTR InstName R6
SYMATTR Value 49.9K
SYMBOL polcap 912 496 R0
WINDOW 3 37 41 Left 0
WINDOW 123 35 73 Left 0
SYMATTR Value 22µ
SYMATTR Value2 x2
SYMATTR InstName C1
SYMATTR Description Capacitor
SYMATTR Type cap
SYMBOL polcap -352 496 R0
WINDOW 3 37 41 Left 0
WINDOW 123 35 73 Left 0
SYMATTR Value 22µ
SYMATTR Value2 x2
SYMATTR InstName C4
SYMATTR Description Capacitor
SYMATTR Type cap
TEXT 648 1088 Left 0 !.tran 350u startup
TEXT 240 120 Bottom 0 ;LTC3546 - Dual Synchronous, Configurable, High Switching Frequency Buck Regulator\nInput: 2.5V to 5.5V, Output1: 2.5V @ 2A, Output2: 1.8V @ 2A
TEXT -352 1224 Left 0 ;Note:\n  If the simulation model is not found please update with the "Sync Release" command from the "Tools" menu.\n  It remains the customer's responsibility to verify proper and reliable operation in the actual application.\n  Component substitution and printed circuit board layout may significantly affect circuit performance or reliability.\n  Contact your local sales representative for assistance. This circuit is distributed to customers only for use with LTC parts.\n  Copyright © 2011 Linear Technology Inc. All rights reserved.
