Version 4
SHEET 1 1352 772
WIRE -16 -176 -112 -176
WIRE 432 -176 -16 -176
WIRE 64 -112 48 -112
WIRE 160 -112 128 -112
WIRE 176 -112 160 -112
WIRE 288 -112 256 -112
WIRE 320 -112 288 -112
WIRE 400 -112 384 -112
WIRE -112 -80 -112 -176
WIRE 160 -64 160 -112
WIRE 288 -64 288 -112
WIRE -16 0 -16 -176
WIRE 48 0 48 -112
WIRE 80 0 48 0
WIRE 400 0 400 -112
WIRE 400 0 368 0
WIRE -320 96 -416 96
WIRE -224 96 -320 96
WIRE 80 96 -224 96
WIRE 432 96 432 -176
WIRE 432 96 368 96
WIRE 576 96 432 96
WIRE 672 96 576 96
WIRE 752 96 672 96
WIRE -416 112 -416 96
WIRE -320 112 -320 96
WIRE -224 112 -224 96
WIRE 672 112 672 96
WIRE 752 112 752 96
WIRE 576 128 576 96
WIRE 432 160 432 96
WIRE -112 192 -112 0
WIRE -112 192 -224 192
WIRE 80 192 -112 192
WIRE 384 192 368 192
WIRE -416 208 -416 192
WIRE -320 208 -320 176
WIRE -224 208 -224 192
WIRE 672 208 672 176
WIRE 752 208 752 192
WIRE -16 288 -16 64
WIRE 80 288 -16 288
WIRE 432 288 432 224
WIRE 432 288 368 288
WIRE 576 288 576 208
WIRE 576 288 432 288
WIRE -224 304 -224 288
WIRE 432 304 432 288
WIRE 576 304 576 288
WIRE -16 384 -16 288
WIRE 80 384 -16 384
WIRE 432 384 432 368
WIRE 432 384 368 384
WIRE -16 400 -16 384
WIRE 576 400 576 384
WIRE 160 464 160 448
WIRE 288 464 288 448
WIRE -16 480 -16 464
WIRE 288 544 288 528
FLAG 160 464 0
FLAG 288 544 0
FLAG -16 480 0
FLAG 384 192 0
FLAG 576 400 0
FLAG 672 208 0
FLAG 752 208 0
FLAG 752 96 OUT
FLAG -320 208 0
FLAG -224 304 0
FLAG -416 208 0
FLAG -416 96 IN
SYMBOL PowerProducts\\LTC3112 224 192 R0
SYMATTR InstName U1
SYMBOL cap 272 464 R0
WINDOW 3 44 34 Left 2
WINDOW 39 27 57 Left 2
SYMATTR Value 100p
SYMATTR SpiceLine Rpar=42.2K
SYMATTR InstName C1
SYMBOL cap -32 400 R0
SYMATTR InstName C2
SYMATTR Value 1µ
SYMBOL cap 128 -128 R90
WINDOW 0 0 32 VBottom 2
WINDOW 3 32 32 VTop 2
SYMATTR InstName C3
SYMATTR Value .1µ
SYMBOL ind 160 -96 R270
WINDOW 0 32 56 VTop 2
WINDOW 3 5 56 VBottom 2
SYMATTR InstName L1
SYMATTR Value 4.7µ
SYMBOL cap 320 -96 R270
WINDOW 0 32 32 VTop 2
WINDOW 3 0 32 VBottom 2
SYMATTR InstName C4
SYMATTR Value .1µ
SYMBOL cap 416 304 R0
WINDOW 39 24 64 Left 2
WINDOW 3 42 37 Left 2
WINDOW 40 24 89 Left 2
SYMATTR SpiceLine Rser=33K
SYMATTR Value 680p
SYMATTR SpiceLine2 Cpar=22p
SYMATTR InstName C5
SYMBOL res 560 112 R0
SYMATTR InstName R1
SYMATTR Value 845K
SYMBOL res 560 288 R0
SYMATTR InstName R2
SYMATTR Value 158K
SYMBOL cap 416 160 R0
WINDOW 39 23 58 Left 2
WINDOW 3 42 33 Left 2
SYMATTR SpiceLine Rser=10K
SYMATTR Value 47p
SYMATTR InstName C6
SYMBOL cap 656 112 R0
SYMATTR InstName C7
SYMATTR Value 47µ
SYMBOL cap -336 112 R0
SYMATTR InstName C8
SYMATTR Value 220µ
SYMBOL schottky -32 0 R0
SYMATTR InstName D1
SYMATTR Value BAT54
SYMATTR Description Diode
SYMATTR Type diode
SYMBOL res -240 96 R0
SYMATTR InstName R3
SYMATTR Value 1Meg
SYMBOL res -240 192 R0
SYMATTR InstName R4
SYMATTR Value 499K
SYMBOL res -128 -96 R0
SYMATTR InstName R5
SYMATTR Value 499K
SYMBOL voltage -416 96 R0
WINDOW 123 0 0 Left 2
WINDOW 39 0 0 Left 2
SYMATTR InstName V1
SYMATTR Value 9
SYMBOL res 736 96 R0
SYMATTR InstName Rload
SYMATTR Value 20
TEXT 544 488 Left 2 !.tran 2.5m startup
TEXT 208 -184 Bottom 2 ;LTC3112 - 15V, 2.5A Synchronous Buck-Boost DC/DC Converter\n5V Buck-Boost Supercap Backup Supply\nInput: 15V to 2V     Output: 2V @ 250mA
TEXT -424 560 Left 2 ;Notes: \n  If the simulation model is not found please update with the "Sync Release" command from the "Tools" menu.\n  It remains the customer's responsibility to verify proper and reliable operation in the actual application.\n  Component substitution and printed circuit board layout may significantly affect circuit performance or reliability.\n  Contact your local sales representative for assistance. This circuit is distributed to customers only for use with LTC parts.\n  Copyright © 2012 Linear Technology Inc.  All rights reserved.
