Version 4
SHEET 1 1312 1684
WIRE -1104 800 -1104 784
WIRE -1104 896 -1104 880
WIRE -992 784 -1104 784
WIRE -992 816 -992 784
WIRE -992 896 -992 880
WIRE -928 784 -992 784
WIRE -928 1104 -928 784
WIRE -928 1200 -928 1184
WIRE -928 1216 -928 1200
WIRE -928 1312 -928 1296
WIRE -848 464 -848 448
WIRE -848 560 -848 544
WIRE -848 784 -928 784
WIRE -848 864 -848 784
WIRE -848 1008 -848 944
WIRE -848 1024 -848 1008
WIRE -848 1120 -848 1104
WIRE -752 784 -848 784
WIRE -752 864 -752 784
WIRE -752 1008 -848 1008
WIRE -752 1008 -752 928
WIRE -736 448 -848 448
WIRE -736 480 -736 448
WIRE -736 560 -736 544
WIRE -688 784 -752 784
WIRE -688 1088 -688 1072
WIRE -624 448 -736 448
WIRE -624 480 -624 448
WIRE -624 560 -624 544
WIRE -624 1072 -688 1072
WIRE -544 448 -624 448
WIRE -544 656 -544 448
WIRE -544 672 -544 656
WIRE -544 784 -608 784
WIRE -544 784 -544 768
WIRE -544 800 -544 784
WIRE -544 944 -544 896
WIRE -544 960 -544 944
WIRE -528 1072 -560 1072
WIRE -528 1088 -528 1072
WIRE -528 1168 -528 1152
WIRE -480 784 -544 784
WIRE -480 816 -480 784
WIRE -464 688 -496 688
WIRE -464 752 -464 688
WIRE -448 624 -448 560
WIRE -448 656 -544 656
WIRE -448 688 -448 656
WIRE -432 624 -448 624
WIRE -432 688 -448 688
WIRE -432 752 -464 752
WIRE -432 816 -480 816
WIRE -432 880 -496 880
WIRE -432 944 -544 944
WIRE -432 1008 -752 1008
WIRE -432 1072 -528 1072
WIRE -432 1136 -448 1136
WIRE -432 1200 -928 1200
WIRE -336 448 -544 448
WIRE -336 464 -336 448
WIRE -336 560 -448 560
WIRE -336 560 -336 544
WIRE -336 576 -336 560
WIRE -272 1264 -272 1248
WIRE -208 448 -336 448
WIRE -208 464 -208 448
WIRE -208 576 -208 544
WIRE -96 560 -336 560
WIRE -96 624 -112 624
WIRE -96 624 -96 560
WIRE -80 1200 -112 1200
WIRE -80 1216 -80 1200
WIRE -80 1296 -80 1280
WIRE -64 560 -96 560
WIRE -64 576 -64 560
WIRE -64 656 -64 640
WIRE -32 1072 -112 1072
WIRE -32 1088 -32 1072
WIRE -32 1184 -32 1152
WIRE -16 688 -112 688
WIRE -16 688 -16 656
WIRE 0 752 -112 752
WIRE 0 752 0 688
WIRE 16 688 0 688
WIRE 16 816 -112 816
WIRE 16 816 16 784
WIRE 16 880 -112 880
WIRE 32 1072 -32 1072
WIRE 64 448 -208 448
WIRE 64 656 -16 656
WIRE 64 656 64 448
WIRE 64 672 64 656
WIRE 64 784 16 784
WIRE 64 784 64 768
WIRE 64 800 64 784
WIRE 64 944 -112 944
WIRE 64 944 64 896
WIRE 64 960 64 944
WIRE 128 784 64 784
WIRE 128 1072 96 1072
WIRE 128 1088 128 1072
WIRE 128 1184 128 1168
WIRE 256 784 208 784
WIRE 256 848 256 784
WIRE 256 1008 -112 1008
WIRE 256 1008 256 928
WIRE 256 1024 256 1008
WIRE 256 1136 256 1104
WIRE 352 784 256 784
WIRE 352 816 352 784
WIRE 352 1008 256 1008
WIRE 352 1008 352 880
WIRE 432 784 352 784
WIRE 432 800 432 784
WIRE 432 896 432 864
WIRE 528 784 432 784
WIRE 528 800 528 784
WIRE 528 896 528 880
FLAG -928 1312 0
FLAG -80 1296 0
FLAG -64 656 0
FLAG -544 960 0
FLAG -528 1168 0
FLAG -688 1168 0
FLAG -992 896 0
FLAG -848 1120 0
FLAG -1104 784 OUT1
FLAG -848 560 0
FLAG 64 960 0
FLAG -32 1184 0
FLAG 128 1184 0
FLAG 432 896 0
FLAG 256 1136 0
FLAG 528 784 OUT2
FLAG -1104 896 0
FLAG 528 896 0
FLAG -448 1136 0
FLAG -272 1264 0
FLAG -736 560 0
FLAG -624 560 0
FLAG -848 448 IN
SYMBOL nmos -496 800 M0
SYMATTR InstName Q1b
SYMATTR Value Si7540DP_N
SYMBOL cap -80 576 R0
SYMATTR InstName C1
SYMATTR Value 1µ
SYMBOL ind -592 800 M270
WINDOW 0 32 56 VTop 0
WINDOW 3 5 56 VBottom 0
SYMATTR InstName L1
SYMATTR Value .82µ
SYMATTR SpiceLine Rser=0.014
SYMBOL res -864 1008 R0
SYMATTR InstName R1
SYMATTR Value 59K
SYMBOL res -864 960 M180
WINDOW 0 36 76 Left 0
WINDOW 3 36 40 Left 0
SYMATTR InstName R2
SYMATTR Value 187K
SYMBOL cap -1008 816 R0
SYMATTR SpiceLine Rser=0.003
SYMATTR InstName C2
SYMATTR Value 100µ
SYMBOL cap -560 1056 R90
WINDOW 0 0 32 VBottom 0
WINDOW 3 32 32 VTop 0
SYMATTR InstName C3
SYMATTR Value 1000p
SYMBOL cap -544 1088 R0
SYMATTR InstName C4
SYMATTR Value 22p
SYMBOL res -704 1072 R0
SYMATTR InstName R3
SYMATTR Value 15K
SYMBOL VOLTAGE -848 448 R0
WINDOW 123 0 0 Left 0
WINDOW 39 0 0 Left 0
SYMATTR InstName V1
SYMATTR Value 3.3
SYMBOL nmos 16 800 R0
SYMATTR InstName Q2b
SYMATTR Value Si7540DP_N
SYMBOL res 240 1008 R0
SYMATTR InstName R4
SYMATTR Value 59K
SYMBOL res 240 944 M180
WINDOW 0 36 76 Left 0
WINDOW 3 36 40 Left 0
SYMATTR InstName R5
SYMATTR Value 118K
SYMBOL cap 416 800 R0
SYMATTR SpiceLine Rser=0.003
SYMATTR InstName C5
SYMATTR Value 100µ
SYMBOL cap 32 1088 R270
WINDOW 0 32 32 VTop 0
WINDOW 3 0 32 VBottom 0
SYMATTR InstName C6
SYMATTR Value 680p
SYMBOL cap -48 1088 R0
SYMATTR InstName C7
SYMATTR Value 22p
SYMBOL res 112 1072 R0
SYMATTR InstName R6
SYMATTR Value 33K
SYMBOL ind 112 800 R270
WINDOW 0 32 56 VTop 0
WINDOW 3 5 56 VBottom 0
SYMATTR InstName L2
SYMATTR Value .82µ
SYMATTR SpiceLine Rser=0.014
SYMBOL pmos 16 768 M180
WINDOW 3 61 52 Left 0
WINDOW 0 61 80 Left 0
SYMATTR Value Si7540DP_P
SYMATTR InstName Q2a
SYMBOL res -352 448 R0
SYMATTR InstName R7
SYMATTR Value 10
SYMBOL res -224 448 R0
SYMATTR InstName R8
SYMATTR Value 100K
SYMBOL pmos -496 768 R180
WINDOW 3 62 53 Left 0
WINDOW 0 63 86 Left 0
SYMATTR Value Si7540DP_P
SYMATTR InstName Q1a
SYMBOL cap -96 1216 R0
SYMATTR InstName C8
SYMATTR Value 100p
SYMBOL res -944 1200 M180
WINDOW 0 36 76 Left 0
WINDOW 3 36 40 Left 0
SYMATTR InstName R9
SYMATTR Value 118K
SYMBOL res -944 1312 M180
WINDOW 0 36 76 Left 0
WINDOW 3 36 40 Left 0
SYMATTR InstName R10
SYMATTR Value 59K
SYMBOL cap -752 480 R0
SYMATTR InstName C9
SYMATTR Value 22µ
SYMBOL cap -640 480 R0
SYMATTR InstName C10
SYMATTR Value 22µ
SYMBOL res 512 784 R0
SYMATTR InstName Rload2
SYMATTR Value .36
SYMBOL res -1120 784 R0
SYMATTR InstName Rload1
SYMATTR Value .5
SYMBOL PowerProducts\\LTC3736-2 -272 912 R0
SYMATTR InstName U1
SYMBOL cap 336 816 R0
SYMATTR InstName C11
SYMATTR Value 22p
SYMBOL cap -768 928 M180
WINDOW 0 24 64 Left 0
WINDOW 3 24 8 Left 0
SYMATTR InstName C12
SYMATTR Value 100p
TEXT 136 1240 Left 0 !.tran 2m startup
TEXT -280 384 Center 0 ;LTC3736-2  -  2-Phase, 550KHz, Dual Output Synchronous DC/DC Converter with Output Tracking \nInput: 3.3V     Outputs: 2.5V@5A and 1.8V@5A
TEXT -832 1304 Left 0 ;Note:\n  If the simulation model is not found please update with the "Sync Release" command from the "Tools" menu.\n  It remains the customer's responsibility to verify proper and reliable operation in the actual application.\n  Component substitution and printed circuit board layout may significantly affect circuit performance or reliability\n  Contact your local sales representative for assistance. This circuit is distributed to customers only for use with LTC parts\n  Copyright © 2006 Linear Technology Inc. All rights reserved.
