Version 4
SHEET 1 1276 780
WIRE -32 48 -96 48
WIRE 96 48 48 48
WIRE -96 96 -96 48
WIRE 96 96 96 48
WIRE -384 160 -496 160
WIRE -288 160 -384 160
WIRE -176 160 -288 160
WIRE 400 160 176 160
WIRE 512 160 400 160
WIRE 624 160 512 160
WIRE 720 160 624 160
WIRE -496 176 -496 160
WIRE -384 176 -384 160
WIRE -288 176 -288 160
WIRE 512 176 512 160
WIRE 624 176 624 160
WIRE 720 176 720 160
WIRE -176 256 -288 256
WIRE 400 256 400 240
WIRE 400 256 176 256
WIRE -496 272 -496 256
WIRE -384 272 -384 240
WIRE -288 272 -288 256
WIRE 512 272 512 256
WIRE 624 272 624 240
WIRE 720 272 720 256
WIRE -288 352 -288 336
WIRE -176 352 -192 352
WIRE 208 352 176 352
WIRE 304 352 288 352
WIRE 400 352 400 256
WIRE 400 352 368 352
WIRE 512 352 512 336
WIRE 512 352 400 352
WIRE 400 368 400 352
WIRE -272 448 -288 448
WIRE -176 448 -192 448
WIRE 224 448 176 448
WIRE 320 448 224 448
WIRE 224 464 224 448
WIRE 320 464 320 448
WIRE 400 464 400 448
WIRE -96 528 -96 512
WIRE 96 528 96 512
WIRE 224 560 224 544
WIRE 320 560 320 528
FLAG 624 272 0
FLAG 720 272 0
FLAG 96 528 0
FLAG -496 272 0
FLAG 720 160 OUT
FLAG -96 528 0
FLAG 224 560 0
FLAG 320 560 0
FLAG 400 464 0
FLAG -288 352 0
FLAG -288 448 0
FLAG -192 352 0
FLAG -384 272 0
FLAG -496 160 IN
SYMBOL ind -48 64 R270
WINDOW 0 32 56 VTop 2
WINDOW 3 5 56 VBottom 2
SYMATTR InstName L1
SYMATTR Value 4.7µ
SYMATTR SpiceLine Rser=0.1
SYMBOL res -176 432 R90
WINDOW 0 0 56 VBottom 2
WINDOW 3 32 56 VTop 2
SYMATTR InstName R1
SYMATTR Value 71.5K
SYMBOL voltage -496 160 R0
WINDOW 123 24 138 Left 2
WINDOW 39 24 117 Left 2
SYMATTR InstName V1
SYMATTR Value 3.3
SYMBOL cap 368 336 R90
WINDOW 0 0 32 VBottom 2
WINDOW 3 32 32 VTop 2
SYMATTR InstName C1
SYMATTR Value 470p
SYMBOL res 304 336 R90
WINDOW 0 0 56 VBottom 2
WINDOW 3 32 56 VTop 2
SYMATTR InstName R2
SYMATTR Value 15K
SYMBOL res 384 352 R0
SYMATTR InstName R3
SYMATTR Value 200K
SYMBOL res 384 144 R0
SYMATTR InstName R4
SYMATTR Value 340K
SYMBOL cap 608 176 R0
SYMATTR InstName C2
SYMATTR Value 22µ
SYMATTR SpiceLine Rser=0.002
SYMBOL cap 496 272 R0
SYMATTR InstName C3
SYMATTR Value 220p
SYMBOL res -304 160 R0
SYMATTR InstName R5
SYMATTR Value 1Meg
SYMBOL cap -304 272 R0
SYMATTR InstName C4
SYMATTR Value .001µ
SYMBOL PowerProducts\\LTC3442 0 304 R0
SYMATTR InstName U1
SYMBOL res 208 448 R0
SYMATTR InstName R6
SYMATTR Value 200K
SYMBOL cap 304 528 M180
WINDOW 0 24 56 Left 2
WINDOW 3 24 8 Left 2
SYMATTR InstName C5
SYMATTR Value .01µ
SYMBOL res 496 160 R0
SYMATTR InstName R7
SYMATTR Value 2.2K
SYMBOL res 704 160 R0
SYMATTR InstName Rload
SYMATTR Value 2.5
SYMBOL cap -400 176 R0
SYMATTR InstName C6
SYMATTR Value 10µ
TEXT 424 544 Left 2 !.tran 2m startup
TEXT 112 0 Bottom 2 ;LTC3442 - µPower Synchronous Buck-Boost DC/DC Converter with Automatic Burst Mode Operation\nLi-Ion to 3.3V µPower Buck-Boost Converter\nInput: 2.5V to 4.2V     Output: 3.3V @ 1.2A
TEXT -472 576 Left 2 ;Note:\n  Small value are used for SS capacitors to reduce simulation time; typical value will vary from 10nF to 100nF.\n  If the simulation model is not found please update with the "Sync Release" command from the "Tools" menu.\n  It remains the customer's responsibility to verify proper and reliable operation in the actual application.\n  Component substitution and printed circuit board layout may significantly affect circuit performance or reliability.\n  Contact your local sales representative for assistance. This circuit is distributed to customers only for use with LTC parts.\n  Copyright © 2012 Linear Technology Inc. All rights reserved.
