Version 4
SHEET 1 3300 2452
WIRE 1584 1280 1472 1280
WIRE 1680 1280 1584 1280
WIRE 1824 1280 1680 1280
WIRE 1952 1280 1824 1280
WIRE 2064 1280 1952 1280
WIRE 1472 1312 1472 1280
WIRE 1584 1312 1584 1280
WIRE 1824 1312 1824 1280
WIRE 1952 1312 1952 1280
WIRE 1728 1376 1712 1376
WIRE 2064 1376 2064 1280
WIRE 2064 1376 2048 1376
WIRE 1472 1408 1472 1392
WIRE 1584 1408 1584 1376
WIRE 2064 1488 2048 1488
WIRE 2176 1488 2144 1488
WIRE 2304 1488 2176 1488
WIRE 2416 1488 2304 1488
WIRE 2176 1504 2176 1488
WIRE 2416 1504 2416 1488
WIRE 2304 1520 2304 1488
WIRE 1680 1600 1680 1280
WIRE 1728 1600 1680 1600
WIRE 2176 1600 2176 1584
WIRE 2176 1600 2048 1600
WIRE 2304 1600 2304 1584
WIRE 2416 1600 2416 1584
WIRE 2176 1616 2176 1600
WIRE 1680 1712 1680 1600
WIRE 1728 1712 1680 1712
WIRE 2064 1712 2048 1712
WIRE 2176 1712 2176 1696
WIRE 1680 1824 1680 1712
WIRE 1728 1824 1680 1824
WIRE 2064 1824 2064 1712
WIRE 2064 1824 2048 1824
WIRE 1824 1904 1824 1888
WIRE 1952 1904 1952 1888
WIRE 1680 1936 1680 1824
WIRE 2064 1936 2064 1824
WIRE 2064 1936 1680 1936
FLAG 1952 1904 0
FLAG 1824 1904 0
FLAG 1472 1408 0
FLAG 2416 1600 0
FLAG 2304 1600 0
FLAG 2416 1488 OUT
FLAG 1584 1408 0
FLAG 1472 1280 IN
FLAG 1712 1376 0
FLAG 2176 1712 0
SYMBOL ind 2048 1504 R270
WINDOW 0 32 56 VTop 0
WINDOW 3 5 56 VBottom 0
SYMATTR InstName L1
SYMATTR Value 0.47µ
SYMATTR SpiceLine Rpar=10K
SYMBOL RES 2160 1488 R0
WINDOW 3 39 73 Left 0
SYMATTR Value 165K
SYMATTR InstName R1
SYMBOL VOLTAGE 1472 1296 R0
WINDOW 3 27 94 Left 0
SYMATTR Value 3.3
SYMATTR InstName V1
SYMBOL res 2160 1600 R0
SYMATTR InstName R2
SYMATTR Value 82.5K
SYMBOL cap 2288 1520 R0
SYMATTR InstName C1
SYMATTR Value 100µ
SYMBOL cap 1568 1312 R0
WINDOW 40 30 67 Left 0
WINDOW 3 43 42 Left 0
SYMATTR SpiceLine2 x2
SYMATTR Value 22µ
SYMATTR InstName C3
SYMBOL RES 2400 1488 R0
WINDOW 3 34 76 Left 0
SYMATTR Value .6
SYMATTR InstName Rload
SYMBOL PowerProducts\\LTC3612 1888 1600 R0
SYMATTR InstName U2
TEXT 2168 1816 Left 0 !.tran 1.5m startup
TEXT 1928 1256 Bottom 0 ;LTC3612 - 3A, 4MHz Monolithic Synchronous Step-down Regulator\nInput: 3.3V     Output: 1.8V @ 3A
TEXT 1288 1944 Left 0 ;Note:\n  If the simulation model is not found please update with the "Sync Release" command from the "Tools" menu.\n  It remains the customer's responsibility to verify proper and reliable operation in the actual application.\n  Component substitution and printed circuit board layout may significantly affect circuit performance or reliability\n  Contact your local sales representative for assistance. This circuit is distributed to customers only for use with LTC parts\n  Copyright © 2010 Linear Technology Inc. All rights reserved.
