Version 4
SHEET 1 3540 2288
WIRE -48 416 -64 416
WIRE 48 416 32 416
WIRE -64 464 -64 416
WIRE 48 464 48 416
WIRE -800 528 -896 528
WIRE -672 528 -736 528
WIRE -496 528 -672 528
WIRE -128 528 -496 528
WIRE 352 528 112 528
WIRE 448 528 352 528
WIRE 544 528 448 528
WIRE -496 544 -496 528
WIRE 448 544 448 528
WIRE -896 560 -896 528
WIRE -672 560 -672 528
WIRE 144 608 128 608
WIRE 240 608 208 608
WIRE 352 608 352 528
WIRE 352 608 320 608
WIRE -496 624 -496 608
WIRE -368 624 -384 624
WIRE -128 624 -288 624
WIRE 352 624 352 608
WIRE 448 624 448 608
WIRE -896 656 -896 624
WIRE -672 672 -672 624
WIRE 544 704 544 528
WIRE -224 720 -240 720
WIRE -128 720 -144 720
WIRE 128 720 128 608
WIRE 128 720 112 720
WIRE 352 720 352 704
WIRE 352 720 128 720
WIRE -672 784 -672 736
WIRE -128 816 -176 816
WIRE 128 816 112 816
WIRE 144 816 128 816
WIRE 256 816 224 816
WIRE 352 816 352 720
WIRE 352 816 320 816
WIRE -64 896 -64 880
WIRE 48 896 48 880
WIRE 128 896 128 816
WIRE 208 896 128 896
WIRE 352 896 352 816
WIRE 352 896 272 896
WIRE 400 896 352 896
WIRE 544 896 544 768
WIRE 544 896 480 896
WIRE 544 912 544 896
WIRE 544 1008 544 992
FLAG 544 1008 0
FLAG 544 528 OUT
FLAG -672 528 IN
FLAG 48 896 0
FLAG -64 896 0
FLAG -240 720 0
FLAG -176 816 0
FLAG 448 624 0
FLAG -896 656 0
FLAG -672 784 0
FLAG -496 624 0
FLAG -384 624 0
SYMBOL LED 528 704 R0
SYMATTR InstName D2
SYMATTR Value QTLP690C
SYMBOL PowerProducts\\LTC3536 0 672 R0
SYMATTR InstName U1
SYMBOL schottky -800 544 R270
WINDOW 0 32 32 VTop 2
WINDOW 3 0 32 VBottom 2
SYMATTR InstName D3
SYMATTR Value B540C
SYMATTR Description Diode
SYMATTR Type diode
SYMBOL diode -912 624 M180
WINDOW 0 30 57 Left 2
WINDOW 3 24 0 Left 2
SYMATTR InstName U2
SYMATTR Value PhotoCell
SYMATTR Prefix X
SYMBOL res 336 592 R90
WINDOW 0 0 56 VBottom 2
WINDOW 3 32 56 VTop 2
SYMATTR InstName R1
SYMATTR Value 6.49K
SYMATTR SpiceLine ""
SYMBOL res 240 800 R90
WINDOW 0 0 56 VBottom 2
WINDOW 3 32 56 VTop 2
SYMATTR InstName R2
SYMATTR Value 49.9K
SYMATTR SpiceLine ""
SYMBOL res 336 608 R0
SYMATTR InstName R3
SYMATTR Value 1020K
SYMATTR SpiceLine ""
SYMBOL res 384 912 R270
WINDOW 0 32 56 VTop 2
WINDOW 3 0 56 VBottom 2
SYMATTR InstName R4
SYMATTR Value 158K
SYMATTR SpiceLine ""
SYMBOL cap 272 880 R90
WINDOW 0 0 32 VBottom 2
WINDOW 3 32 32 VTop 2
SYMATTR InstName C1
SYMATTR Value 10p
SYMATTR SpiceLine ""
SYMBOL cap 208 592 R90
WINDOW 0 0 32 VBottom 2
WINDOW 3 32 32 VTop 2
SYMATTR InstName C2
SYMATTR Value 47p
SYMATTR SpiceLine ""
SYMBOL cap 320 800 R90
WINDOW 0 0 32 VBottom 2
WINDOW 3 32 32 VTop 2
SYMATTR InstName C3
SYMATTR Value 220p
SYMATTR SpiceLine ""
SYMBOL cap 432 608 M180
WINDOW 0 24 56 Left 2
WINDOW 3 24 8 Left 2
SYMATTR InstName C4
SYMATTR Value 22µ
SYMATTR SpiceLine ""
SYMBOL res -128 704 R90
WINDOW 0 0 56 VBottom 2
WINDOW 3 32 56 VTop 2
SYMATTR InstName R5
SYMATTR Value 100K
SYMATTR SpiceLine ""
SYMBOL cap -512 544 R0
SYMATTR InstName C5
SYMATTR Value 10µ
SYMATTR SpiceLine ""
SYMBOL cap -688 560 R0
WINDOW 3 39 34 Left 2
WINDOW 39 25 60 Left 2
SYMATTR Value 6m
SYMATTR SpiceLine Rpar=221K
SYMATTR InstName C6
SYMBOL res 528 896 R0
SYMATTR InstName R8
SYMATTR Value 2
SYMATTR SpiceLine ""
SYMBOL ind -64 432 R270
WINDOW 0 32 56 VTop 2
WINDOW 3 5 56 VBottom 2
SYMATTR InstName L1
SYMATTR Value 4.7µ
SYMBOL cap -688 672 R0
WINDOW 3 39 32 Left 2
WINDOW 39 23 60 Left 2
SYMATTR Value 6m
SYMATTR SpiceLine Rpar=221K
SYMATTR InstName C7
SYMBOL voltage -272 624 R90
WINDOW 0 -32 56 VBottom 2
WINDOW 3 32 56 VTop 2
SYMATTR InstName V1
SYMATTR Value PWL(10m 0 10.1m 3)
TEXT -896 792 Left 1 !.subckt PhotoCell B A\nC1 A B 1n\nV1 N001 B PWL 0 0 3u 4.8\nD1 N001 A S2\nR1 A N001 75\n.model S2 D(Ron=.1 Ilimit=5.1 epsilon=.5)\n.ends
TEXT 288 968 Left 2 !.tran 12m
TEXT -152 368 Bottom 2 ;LTC3536 - 1A Low Noise, Buck-Boost DC/DC Converter\nSolar Cell Powered Emergency LED Torch Lighting Driver\nInput: 1.8V to 5V     Output: 3.3V @ 300mA (1A for Vin > 3V)
TEXT -880 992 Left 2 ;Note:\n  If the simulation model is not found please update with the "Sync Release" command from the "Tools" menu.\n  It remains the customer's responsibility to verify proper and reliable operation in the actual application.\n  Component substitution and printed circuit board layout may significantly affect circuit performance or reliability.\n  Contact your local sales representative for assistance. This circuit is distributed to customers only for use with LTC parts.\n  Copyright © 2012 Linear Technology Inc. All rights reserved.
