Version 4
SHEET 1 1276 804
WIRE -400 176 -400 144
WIRE -400 320 -400 256
WIRE -336 144 -400 144
WIRE -304 144 -336 144
WIRE -304 192 -304 144
WIRE -304 320 -304 256
WIRE -224 144 -304 144
WIRE -224 240 -224 224
WIRE -224 320 -224 304
WIRE -160 400 -160 384
WIRE -160 496 -160 480
WIRE -128 320 -128 304
WIRE -112 64 -112 -16
WIRE -96 64 -112 64
WIRE -96 144 -224 144
WIRE -96 224 -224 224
WIRE -96 304 -128 304
WIRE -96 384 -160 384
WIRE 32 -16 -112 -16
WIRE 240 304 224 304
WIRE 256 -16 112 -16
WIRE 256 64 224 64
WIRE 256 64 256 -16
WIRE 256 384 224 384
WIRE 256 400 256 384
WIRE 320 304 304 304
WIRE 416 144 224 144
WIRE 416 224 224 224
WIRE 416 304 400 304
WIRE 416 304 416 224
WIRE 416 320 416 304
WIRE 416 416 416 400
WIRE 528 144 416 144
WIRE 528 192 528 144
WIRE 528 320 528 256
WIRE 624 144 528 144
WIRE 624 192 624 144
WIRE 624 320 624 272
FLAG 528 320 0
FLAG 624 320 0
FLAG 416 416 0
FLAG 256 400 0
FLAG -160 496 0
FLAG -128 320 0
FLAG -304 320 0
FLAG -400 320 0
FLAG 624 144 OUT
FLAG -336 144 IN
FLAG -224 320 0
SYMBOL PowerProducts\\LTC3440 64 224 R0
WINDOW 0 -1 -125 Center 0
SYMATTR InstName U1
SYMBOL ind 16 0 R270
WINDOW 0 32 56 VTop 0
WINDOW 3 5 56 VBottom 0
SYMATTR InstName L1
SYMATTR Value 10µ
SYMATTR SpiceLine Ipk=1 Rser=0.226 Rpar=942 Cpar=0 mfg="Coilcraft" pn="DO1606T-103"
SYMBOL res -176 384 R0
SYMATTR InstName R1
SYMATTR Value 60.4K
SYMBOL cap -320 192 R0
SYMATTR InstName C1
SYMATTR Value 10µ
SYMATTR SpiceLine Rser=0.002
SYMBOL voltage -400 160 R0
WINDOW 123 0 0 Left 0
WINDOW 39 0 0 Left 0
SYMATTR InstName V1
SYMATTR Value 3
SYMBOL cap 304 288 R90
WINDOW 0 0 32 VBottom 0
WINDOW 3 32 32 VTop 0
SYMATTR InstName C2
SYMATTR Value .0015µ
SYMBOL res 416 288 R90
WINDOW 0 0 56 VBottom 0
WINDOW 3 32 56 VTop 0
SYMATTR InstName R2
SYMATTR Value 15K
SYMBOL res 400 304 R0
WINDOW 0 45 43 Left 0
WINDOW 3 45 75 Left 0
SYMATTR InstName R3
SYMATTR Value 200K
SYMBOL res 400 128 R0
SYMATTR InstName R4
SYMATTR Value 340K
SYMBOL cap 512 192 R0
SYMATTR InstName C3
SYMATTR Value 22µ
SYMATTR SpiceLine Rser=0.002
SYMBOL load2 624 192 R0
WINDOW 123 0 0 Left 0
WINDOW 39 25 112 Left 0
SYMATTR SpiceLine load
SYMATTR Value 600m
SYMATTR InstName I1
SYMBOL res -240 128 R0
WINDOW 0 43 41 Left 0
WINDOW 3 41 73 Left 0
SYMATTR InstName R5
SYMATTR Value 1Meg
SYMBOL cap -240 240 R0
SYMATTR InstName C4
SYMATTR Value .0047µ
TEXT 544 392 Left 0 !.tran 5m startup
TEXT 112 -104 Center 0 ;LTC3440 - 600mA Synchronous Buck-Boost DC/DC Converter\nInput: 2.7V to 4.2V     Output: 3.3V @ 600mA
TEXT -512 504 Left 0 ;Note:\n  If the simulation model is not found please update with the "Sync Release" command from the "Tools" menu.\n  It remains the customer's responsibility to verify proper and reliable operation in the actual application.\n  Component substitution and printed circuit board layout may significantly affect circuit performance or reliability\n  Contact your local sales representative for assistance. This circuit is distributed to customers only for use with LTC parts\n  Copyright © 2006 Linear Technology Inc. All rights reserved.
