Version 4
SHEET 1 3012 2272
WIRE 1840 1152 1808 1152
WIRE 1936 1152 1920 1152
WIRE 1808 1200 1808 1152
WIRE 1936 1200 1936 1152
WIRE 1616 1264 1520 1264
WIRE 1696 1264 1616 1264
WIRE 1712 1264 1696 1264
WIRE 2080 1264 2032 1264
WIRE 2224 1264 2080 1264
WIRE 2304 1264 2224 1264
WIRE 1520 1280 1520 1264
WIRE 1616 1280 1616 1264
WIRE 2080 1280 2080 1264
WIRE 2224 1280 2224 1264
WIRE 1696 1360 1696 1264
WIRE 1712 1360 1696 1360
WIRE 2080 1360 2080 1344
WIRE 2080 1360 2032 1360
WIRE 2224 1360 2224 1344
WIRE 1520 1376 1520 1360
WIRE 1616 1376 1616 1344
WIRE 1696 1456 1696 1360
WIRE 1712 1456 1696 1456
WIRE 2080 1456 2080 1360
WIRE 2080 1456 2032 1456
WIRE 1696 1552 1696 1456
WIRE 1712 1552 1696 1552
WIRE 2128 1552 2032 1552
WIRE 2304 1552 2304 1264
WIRE 2304 1552 2192 1552
WIRE 1616 1648 1600 1648
WIRE 1712 1648 1696 1648
WIRE 2048 1648 2032 1648
WIRE 2304 1648 2304 1552
WIRE 2304 1648 2112 1648
WIRE 1616 1744 1600 1744
WIRE 1712 1744 1696 1744
WIRE 2128 1744 2032 1744
WIRE 2304 1744 2304 1648
WIRE 2304 1744 2192 1744
WIRE 1616 1840 1600 1840
WIRE 1712 1840 1680 1840
WIRE 2048 1840 2032 1840
WIRE 2304 1840 2304 1744
WIRE 2304 1840 2112 1840
WIRE 1712 1936 1680 1936
WIRE 2128 1936 2032 1936
WIRE 2304 1936 2304 1840
WIRE 2304 1936 2192 1936
WIRE 1872 2016 1872 2000
FLAG 1872 2016 0
FLAG 1520 1376 0
FLAG 1616 1376 0
FLAG 1600 1840 0
FLAG 2224 1360 0
FLAG 1680 1936 0
FLAG 1600 1648 0
FLAG 1600 1744 0
FLAG 1520 1264 IN
SYMBOL ind 1824 1168 R270
WINDOW 0 32 56 VTop 0
WINDOW 3 5 56 VBottom 0
SYMATTR InstName L1
SYMATTR Value 4.7µ
SYMATTR SpiceLine Rser=0.14
SYMBOL VOLTAGE 1520 1264 R0
SYMATTR InstName V1
SYMATTR Value 3
SYMBOL cap 1600 1280 R0
SYMATTR InstName C3
SYMATTR Value 2.2µ
SYMATTR SpiceLine Rser=.0012
SYMBOL cap 1680 1824 R90
WINDOW 0 0 32 VBottom 0
WINDOW 3 32 32 VTop 0
WINDOW 123 60 32 VTop 0
SYMATTR InstName C1
SYMATTR Value {.1µ/5}
SYMBOL LED 2064 1280 R0
WINDOW 0 39 2 Left 0
WINDOW 3 28 75 Left 0
SYMATTR InstName D1
SYMATTR Value AOT-2015
SYMATTR Description Diode
SYMATTR Type diode
SYMBOL cap 2208 1280 R0
SYMATTR InstName C2
SYMATTR Value 4.7µ
SYMATTR SpiceLine Rser=.008
SYMBOL PowerProducts\\LTC3452 1872 1600 R0
SYMATTR InstName U1
SYMBOL res 1712 1728 R90
WINDOW 0 0 56 VBottom 0
WINDOW 3 32 56 VTop 0
SYMATTR InstName R1
SYMATTR Value 10.2K
SYMBOL res 1712 1632 R90
WINDOW 0 0 56 VBottom 0
WINDOW 3 32 56 VTop 0
SYMATTR InstName R2
SYMATTR Value 4.87K
SYMBOL LED 2192 1536 R90
WINDOW 0 0 32 VBottom 0
WINDOW 3 34 10 VLeft 0
SYMATTR InstName D2
SYMATTR Value NSCW100
SYMATTR Description Diode
SYMATTR Type diode
SYMBOL LED 2112 1632 R90
WINDOW 0 0 32 VBottom 0
WINDOW 3 34 10 VLeft 0
SYMATTR InstName D3
SYMATTR Value NSCW100
SYMATTR Description Diode
SYMATTR Type diode
SYMBOL LED 2192 1728 R90
WINDOW 0 0 32 VBottom 0
WINDOW 3 34 10 VLeft 0
SYMATTR InstName D4
SYMATTR Value NSCW100
SYMATTR Description Diode
SYMATTR Type diode
SYMBOL LED 2112 1824 R90
WINDOW 0 0 32 VBottom 0
WINDOW 3 34 10 VLeft 0
SYMATTR InstName D5
SYMATTR Value NSCW100
SYMATTR Description Diode
SYMATTR Type diode
SYMBOL LED 2192 1920 R90
WINDOW 0 0 32 VBottom 0
WINDOW 3 34 10 VLeft 0
SYMATTR InstName D6
SYMATTR Value NSCW100
SYMATTR Description Diode
SYMATTR Type diode
TEXT 2264 2000 Left 0 !.tran {20m/5} startup
TEXT 1936 1104 Bottom 0 ;LTC3452 - Synchronous Buck-Boost MAIN/CAMERA White LED Driver\nInput: 2.7V - 5.5V    Output: 250mA and 5 x 20mA
TEXT 1376 2032 Left 0 ;Notes:\n  Compensation capacitor, C1, is reduced 5 fold from it's recommended value in the interest of speeding up the\n  startup simulation.\n \n  If the simulation model is not found please update with the "Sync Release" command from the "Tools" menu.\n  It remains the customer's responsibility to verify proper and reliable operation in the actual application.\n  Component substitution and printed circuit board layout may significantly affect circuit performance or reliability\n  Contact your local sales representative for assistance. This circuit is distributed to customers only for use with LTC parts\n  Copyright © 2008 Linear Technology Inc. All rights reserved.
