Version 4
SHEET 1 1692 1300
WIRE 256 32 160 32
WIRE 464 32 256 32
WIRE 880 32 464 32
WIRE 160 48 160 32
WIRE 256 48 256 32
WIRE 448 48 352 48
WIRE 560 48 448 48
WIRE 672 48 560 48
WIRE 784 48 672 48
WIRE 896 48 784 48
WIRE 352 64 352 48
WIRE 560 64 560 48
WIRE 672 64 672 48
WIRE 784 64 784 48
WIRE 464 128 464 32
WIRE 480 128 464 128
WIRE 880 128 880 32
WIRE 880 128 864 128
WIRE 160 144 160 128
WIRE 256 144 256 112
WIRE 352 144 352 128
WIRE 464 224 464 128
WIRE 480 224 464 224
WIRE 880 224 880 128
WIRE 880 224 864 224
WIRE 480 416 272 416
WIRE 1088 416 864 416
WIRE 480 512 400 512
WIRE 928 512 864 512
WIRE 400 528 400 512
WIRE 928 528 928 512
WIRE 160 608 32 608
WIRE 272 608 272 416
WIRE 272 608 160 608
WIRE 304 608 272 608
WIRE 400 608 400 592
WIRE 400 608 384 608
WIRE 480 608 400 608
WIRE 928 608 928 592
WIRE 928 608 864 608
WIRE 976 608 928 608
WIRE 1088 608 1088 416
WIRE 1088 608 1056 608
WIRE 1200 608 1088 608
WIRE 1296 608 1200 608
WIRE 32 624 32 608
WIRE 160 624 160 608
WIRE 272 624 272 608
WIRE 1088 624 1088 608
WIRE 1200 624 1200 608
WIRE 1296 624 1296 608
WIRE 480 704 272 704
WIRE 1088 704 864 704
WIRE 32 720 32 704
WIRE 160 720 160 688
WIRE 272 720 272 704
WIRE 1088 720 1088 704
WIRE 1200 720 1200 688
WIRE 1296 720 1296 704
WIRE 448 800 448 48
WIRE 480 800 448 800
WIRE 896 800 896 48
WIRE 896 800 864 800
WIRE 272 816 272 800
WIRE 1088 816 1088 800
WIRE 384 992 368 992
WIRE 480 992 464 992
WIRE 912 992 864 992
WIRE 1072 992 912 992
WIRE 912 1008 912 992
WIRE 1072 1008 1072 992
WIRE 592 1072 592 1056
WIRE 752 1072 752 1056
WIRE 912 1104 912 1072
WIRE 1072 1104 1072 1088
FLAG 160 144 0
FLAG 272 816 0
FLAG 368 992 0
FLAG 592 1072 0
FLAG 752 1072 0
FLAG 912 1104 0
FLAG 160 720 0
FLAG 32 720 0
FLAG 32 608 OUT2
FLAG 1088 816 0
FLAG 1200 720 0
FLAG 1296 720 0
FLAG 1296 608 OUT1
FLAG 160 32 IN
FLAG 256 144 0
FLAG 1072 992 OUT3
FLAG 352 144 0
FLAG 1072 1104 0
SYMBOL voltage 160 32 R0
SYMATTR InstName V1
SYMATTR Value 12
SYMBOL PowerProducts\\LTC3633 672 560 R0
SYMATTR InstName U1
SYMBOL cap 336 128 M180
WINDOW 0 24 64 Left 0
WINDOW 3 24 8 Left 0
SYMATTR InstName C1
SYMATTR Value 2.2µ
SYMBOL ind 400 624 M270
WINDOW 0 32 56 VTop 0
WINDOW 3 5 56 VBottom 0
SYMATTR InstName L1
SYMATTR Value .68µ
SYMBOL cap 384 528 R0
SYMATTR InstName C2
SYMATTR Value .1µ
SYMBOL res 256 608 R0
SYMATTR InstName R1
SYMATTR Value 20K
SYMBOL res 256 704 R0
SYMATTR InstName R2
SYMATTR Value 10K
SYMBOL res 480 976 R90
WINDOW 0 0 56 VBottom 0
WINDOW 3 32 56 VTop 0
SYMATTR InstName R3
SYMATTR Value 162K
SYMBOL cap 896 1008 R0
SYMATTR InstName C3
SYMATTR Value .1µ
SYMBOL cap 144 624 R0
SYMATTR InstName C4
SYMATTR Value 47µ
SYMATTR SpiceLine V=6.3 Irms=0 Rser=0.002 Lser=0 mfg="TDK" pn="C4532X5ROJ47@M" type="X5R"
SYMBOL ind 960 624 R270
WINDOW 0 32 56 VTop 0
WINDOW 3 5 56 VBottom 0
SYMATTR InstName L2
SYMATTR Value 1µ
SYMBOL cap 912 528 R0
SYMATTR InstName C5
SYMATTR Value .1µ
SYMBOL res 1072 608 R0
SYMATTR InstName R4
SYMATTR Value 45.3K
SYMBOL res 1072 704 R0
SYMATTR InstName R5
SYMATTR Value 10K
SYMBOL cap 1184 624 R0
SYMATTR InstName C6
SYMATTR Value 22µ
SYMATTR SpiceLine V=6.3 Irms=0 Rser=0.0008 Lser=0 mfg="TDK" pn="C3225X5ROJ226M" type="X5R"
SYMBOL cap 240 48 R0
WINDOW 40 33 64 Left 0
WINDOW 3 39 35 Left 0
SYMATTR SpiceLine2 x2
SYMATTR InstName C7
SYMATTR Value 47µ
SYMATTR SpiceLine V=6.3 Irms=0 Rser=0.002 Lser=0 mfg="TDK" pn="C4532X5ROJ47@M" type="X5R"
SYMBOL res 16 608 R0
SYMATTR InstName Rload2
SYMATTR Value .6
SYMBOL res 1280 608 R0
SYMATTR InstName Rload1
SYMATTR Value 1.1
SYMBOL res 1056 992 R0
SYMATTR InstName Rload3
SYMATTR Value 250
TEXT 1240 1096 Left 0 !.tran .5m startup
TEXT 72 1120 Left 0 ;Note:\n  If the simulation model is not found please update with the "Sync Release" command from the "Tools" menu.\n  It remains the customer's responsibility to verify proper and reliable operation in the actual application.\n  Component substitution and printed circuit board layout may significantly affect circuit performance or reliability\n  Contact your local sales representative for assistance. This circuit is distributed to customers only for use with LTC parts\n  Copyright © 2011 Linear Technology Inc. All rights reserved.
TEXT 688 0 Bottom 0 ;LTC3633  - Dual Channel 3A, 15V Monolithic Synchronous Step-Down Regulator\n3.3V/1.8V Buck Regulator with 2.5V LDO Output\nInput: 12V       Output1: 3.3V @ 3A       Output2: 1.8V @ 3A     Output3: 2.5V @ 10mA
