Version 4
SHEET 1 1720 680
WIRE 736 80 -48 80
WIRE -128 128 -240 128
WIRE -48 128 -48 80
WIRE -48 128 -128 128
WIRE 0 128 -48 128
WIRE 672 128 256 128
WIRE 800 128 672 128
WIRE 1184 128 1088 128
WIRE 1312 128 1184 128
WIRE 1392 128 1312 128
WIRE -240 144 -240 128
WIRE -128 144 -128 128
WIRE 672 144 672 128
WIRE 1312 144 1312 128
WIRE 1392 144 1392 128
WIRE -48 208 -48 128
WIRE 0 208 -48 208
WIRE 336 208 256 208
WIRE 448 208 336 208
WIRE 544 208 448 208
WIRE 736 208 736 80
WIRE 800 208 736 208
WIRE 1184 208 1088 208
WIRE 448 224 448 208
WIRE 544 224 544 208
WIRE 672 224 672 208
WIRE -240 240 -240 224
WIRE -128 240 -128 208
WIRE 1312 240 1312 208
WIRE 1392 240 1392 224
WIRE 0 288 -80 288
WIRE 336 288 256 288
WIRE 736 288 736 208
WIRE 800 288 736 288
WIRE 1120 288 1088 288
WIRE 336 304 336 288
WIRE 1184 304 1184 288
WIRE 448 320 448 288
WIRE 544 320 544 304
WIRE -80 368 -80 352
WIRE 0 368 -80 368
WIRE 288 368 256 368
WIRE 336 400 336 384
FLAG -240 240 0
FLAG 672 224 0
FLAG 288 368 0
FLAG 336 400 0
FLAG 544 320 0
FLAG 448 320 0
FLAG 544 208 OUT1
FLAG -240 128 IN
FLAG -128 240 0
FLAG 1120 288 0
FLAG 1184 304 0
FLAG 1392 240 0
FLAG 1312 240 0
FLAG 1392 128 OUT2
SYMBOL PowerProducts\\LTC3035 128 256 R0
SYMATTR InstName U1
SYMBOL cap -96 288 R0
WINDOW 0 29 18 Left 2
WINDOW 3 27 52 Left 2
SYMATTR InstName C1
SYMATTR Value 0.1µ
SYMBOL voltage -240 128 R0
SYMATTR InstName V1
SYMATTR Value 2.5
SYMBOL cap 656 144 R0
SYMATTR InstName C2
SYMATTR Value 1µ
SYMBOL res 320 192 R0
SYMATTR InstName R1
SYMATTR Value 140K
SYMBOL res 320 288 R0
SYMATTR InstName R2
SYMATTR Value 40.2K
SYMBOL res 528 208 R0
SYMATTR InstName Rload1
SYMATTR Value 6
SYMBOL cap 432 224 R0
SYMATTR InstName C3
SYMATTR Value 1µ
SYMBOL cap -144 144 R0
SYMATTR InstName C4
SYMATTR Value 1µ
SYMBOL res 1168 112 R0
SYMATTR InstName R3
SYMATTR Value 110K
SYMBOL res 1168 192 R0
SYMATTR InstName R4
SYMATTR Value 40.2K
SYMBOL cap 1296 144 R0
SYMATTR InstName C5
SYMATTR Value 1µ
SYMBOL PowerProducts\\LTC3025 944 208 R0
SYMATTR InstName U2
SYMBOL res 1376 128 R0
SYMATTR InstName Rload2
SYMATTR Value 5
TEXT -96 424 Left 2 ;Note:\n  If the simulation model is not found please update with the "Sync Release" command from the "Tools" menu.\n  It remains the customer's responsibility to verify proper and reliable operation in the actual application.\n  Component substitution and printed circuit board layout may significantly affect circuit performance or reliability\n  Contact your local sales representative for assistance. This circuit is distributed to customers only for use with LTC parts\n  Copyright © 2011, 2014 Linear Technology Inc. All rights reserved.
TEXT 552 56 Bottom 2 ;LTC3035 - 300mA VLDO Linear Regulator with Charge Pump Bias Generator\nInput: 1.7V to 5.5V   Output: 1.8V @ 300mA, 1.5V @ 300mA
TEXT 1312 288 Left 2 !.tran 4m startup
