Version 4
SHEET 1 2568 1124
WIRE -112 -576 -144 -576
WIRE 256 -576 -112 -576
WIRE 352 -576 256 -576
WIRE 560 -576 352 -576
WIRE 720 -576 560 -576
WIRE -144 -528 -144 -576
WIRE -144 -528 -240 -528
WIRE -112 -528 -112 -576
WIRE 0 -528 -16 -528
WIRE 96 -528 80 -528
WIRE 160 -528 96 -528
WIRE -240 -512 -240 -528
WIRE 96 -512 96 -528
WIRE 256 -512 256 -576
WIRE 352 -512 352 -576
WIRE -240 -432 -240 -448
WIRE 96 -432 96 -448
WIRE -800 -400 -912 -400
WIRE -672 -400 -800 -400
WIRE -576 -400 -672 -400
WIRE -16 -400 -16 -528
WIRE -16 -400 -576 -400
WIRE 912 -400 -16 -400
WIRE -912 -384 -912 -400
WIRE -800 -384 -800 -400
WIRE -672 -384 -672 -400
WIRE -144 -368 -144 -528
WIRE -144 -368 -400 -368
WIRE -112 -368 -112 -448
WIRE -32 -368 -112 -368
WIRE -576 -352 -576 -400
WIRE -400 -352 -400 -368
WIRE 256 -352 256 -432
WIRE 256 -352 -272 -352
WIRE 672 -352 256 -352
WIRE 720 -352 720 -576
WIRE 912 -352 912 -400
WIRE -144 -336 -144 -368
WIRE -32 -336 -32 -368
WIRE 160 -336 160 -528
WIRE 256 -336 256 -352
WIRE 352 -336 352 -432
WIRE 560 -336 560 -576
WIRE -912 -288 -912 -304
WIRE -800 -288 -800 -320
WIRE -672 -288 -672 -320
WIRE -256 -272 -528 -272
WIRE 864 -272 656 -272
WIRE -400 -176 -400 -288
WIRE -256 -176 -400 -176
WIRE 720 -176 720 -288
WIRE 720 -176 656 -176
WIRE -400 -160 -400 -176
WIRE 720 -160 720 -176
WIRE -1056 -80 -1184 -80
WIRE -896 -80 -1056 -80
WIRE -800 -80 -896 -80
WIRE -688 -80 -720 -80
WIRE -576 -80 -576 -256
WIRE -576 -80 -608 -80
WIRE -400 -80 -400 -96
WIRE -400 -80 -576 -80
WIRE -256 -80 -400 -80
WIRE 720 -80 720 -96
WIRE 720 -80 656 -80
WIRE 912 -80 912 -256
WIRE 912 -80 720 -80
WIRE 976 -80 912 -80
WIRE 1088 -80 1056 -80
WIRE 1104 -80 1088 -80
WIRE 1200 -80 1184 -80
WIRE 1216 -80 1200 -80
WIRE 1248 -80 1216 -80
WIRE 1376 -80 1248 -80
WIRE 1504 -80 1376 -80
WIRE -1184 -64 -1184 -80
WIRE -1056 -64 -1056 -80
WIRE -944 -64 -1056 -64
WIRE -576 -64 -576 -80
WIRE 912 -64 912 -80
WIRE 1248 -64 1248 -80
WIRE 1376 -64 1376 -80
WIRE 1504 -64 1504 -80
WIRE -1056 -48 -1056 -64
WIRE -896 -48 -896 -80
WIRE -256 16 -528 16
WIRE 864 16 656 16
WIRE -1056 32 -1056 16
WIRE -976 32 -1056 32
WIRE 1248 32 1248 0
WIRE 1376 32 1376 0
WIRE 1504 32 1504 16
WIRE -1184 48 -1184 16
WIRE -1056 48 -1056 32
WIRE -896 48 -896 16
WIRE -576 48 -576 32
WIRE 912 48 912 32
WIRE -720 112 -720 -80
WIRE -480 112 -720 112
WIRE -352 112 -400 112
WIRE -256 112 -352 112
WIRE 704 112 656 112
WIRE 752 112 704 112
WIRE 1088 112 1088 -80
WIRE 1088 112 832 112
WIRE -352 128 -352 112
WIRE 704 128 704 112
WIRE -800 208 -800 -80
WIRE -480 208 -800 208
WIRE -352 208 -352 192
WIRE -352 208 -400 208
WIRE -256 208 -352 208
WIRE 704 208 704 192
WIRE 704 208 656 208
WIRE 752 208 704 208
WIRE 1200 208 1200 -80
WIRE 1200 208 832 208
WIRE -448 304 -496 304
WIRE -256 304 -384 304
WIRE 800 304 656 304
WIRE 896 304 864 304
WIRE -272 400 -272 -352
WIRE -256 400 -272 400
WIRE 672 400 672 -352
WIRE 672 400 656 400
WIRE -944 480 -944 -64
WIRE -480 480 -944 480
WIRE -480 496 -480 480
WIRE -368 496 -384 496
WIRE -256 496 -304 496
WIRE 688 496 656 496
WIRE 768 496 752 496
WIRE 1216 496 1216 -80
WIRE -976 512 -976 32
WIRE -528 512 -976 512
WIRE -480 592 -480 576
WIRE -256 592 -480 592
WIRE 1216 592 1216 576
WIRE 1216 592 656 592
WIRE -480 608 -480 592
WIRE 1216 608 1216 592
WIRE -528 688 -528 512
WIRE -480 688 -528 688
WIRE -256 688 -480 688
WIRE 1216 704 1216 688
WIRE -272 768 -272 400
WIRE -144 768 -144 752
WIRE -144 768 -272 768
WIRE -32 768 -32 752
WIRE -32 768 -144 768
WIRE 64 768 64 752
WIRE 160 768 160 752
WIRE 256 768 256 752
WIRE 560 768 560 752
WIRE 672 768 672 400
WIRE 672 768 560 768
WIRE 64 864 64 848
FLAG 160 768 0
FLAG 256 768 0
FLAG 64 864 0
FLAG -912 -288 0
FLAG -240 -432 0
FLAG -576 48 0
FLAG -1184 48 0
FLAG -496 304 0
FLAG -384 496 0
FLAG -912 -400 IN
FLAG 912 48 0
FLAG 1504 32 0
FLAG 896 304 0
FLAG 768 496 0
FLAG 1216 704 0
FLAG -800 -288 0
FLAG -672 -288 0
FLAG 96 -432 0
FLAG -1056 48 0
FLAG -896 48 0
FLAG 1248 32 0
FLAG 1376 32 0
FLAG -1184 -80 OUT1
FLAG 1504 -80 OUT2
SYMBOL PowerProducts\\LTC3838 208 208 R0
SYMATTR InstName U1
SYMBOL res 48 752 R0
SYMATTR InstName R1
SYMATTR Value 137K
SYMBOL voltage -912 -400 R0
WINDOW 123 0 0 Left 2
WINDOW 39 0 0 Left 2
SYMATTR InstName V1
SYMATTR Value 12
SYMBOL cap -256 -448 M180
WINDOW 0 24 56 Left 2
WINDOW 3 24 8 Left 2
SYMATTR InstName C1
SYMATTR Value 4.7µ
SYMBOL res 240 -528 R0
SYMATTR InstName R2
SYMATTR Value 2.2
SYMBOL nmos -528 -352 M0
WINDOW 0 35 -4 Right 2
WINDOW 3 38 110 Right 2
SYMATTR InstName Q1
SYMATTR Value RJK0305DPB
SYMBOL nmos -528 -64 M0
WINDOW 0 0 6 Right 2
WINDOW 3 28 100 Right 2
SYMATTR InstName Q2
SYMATTR Value RJK0301DPB
SYMBOL schottky -416 -352 R0
SYMATTR InstName D1
SYMATTR Value MBRS140
SYMATTR Description Diode
SYMATTR Type diode
SYMBOL cap -416 -160 R0
SYMATTR InstName C2
SYMATTR Value .1µ
SYMBOL ind -592 -64 M270
WINDOW 0 32 56 VTop 2
WINDOW 3 5 56 VBottom 2
SYMATTR InstName L1
SYMATTR Value 0.68µ
SYMATTR SpiceLine Ipk=20 Rser=0.00135 Rpar=834.55 Cpar=2.167p mfg="Wurth Elektronik" pn="7443330068 WE-HCC 1090"
SYMBOL cap -368 128 R0
SYMATTR InstName C3
SYMATTR Value 1n
SYMBOL cap -384 288 R90
WINDOW 0 0 32 VBottom 2
WINDOW 3 32 32 VTop 2
WINDOW 39 53 32 VTop 2
SYMATTR InstName C4
SYMATTR Value 330p
SYMATTR SpiceLine Rser=20K Cpar=47p
SYMBOL cap -304 480 R90
WINDOW 0 0 32 VBottom 2
WINDOW 3 32 32 VTop 2
SYMATTR InstName C5
SYMATTR Value 1n
SYMBOL res -496 480 R0
SYMATTR InstName R3
SYMATTR Value 10K
SYMBOL res -496 592 R0
SYMATTR InstName R4
SYMATTR Value 10K
SYMBOL nmos 864 -352 R0
WINDOW 0 59 18 Left 2
WINDOW 3 61 98 Left 2
SYMATTR InstName Q3
SYMATTR Value RJK0305DPB
SYMBOL nmos 864 -64 R0
WINDOW 0 60 28 Left 2
WINDOW 3 57 84 Left 2
SYMATTR InstName Q4
SYMATTR Value RJK0301DPB
SYMBOL schottky 704 -352 R0
SYMATTR InstName D2
SYMATTR Value MBRS140
SYMATTR Description Diode
SYMATTR Type diode
SYMBOL cap 704 -160 R0
SYMATTR InstName C6
SYMATTR Value .1µ
SYMBOL ind 960 -64 R270
WINDOW 0 32 56 VTop 2
WINDOW 3 5 56 VBottom 2
SYMATTR InstName L2
SYMATTR Value 0.68µ
SYMATTR SpiceLine Ipk=20 Rser=0.00135 Rpar=834.55 Cpar=2.167p mfg="Wurth Elektronik" pn="7443330068 WE-HCC 1090"
SYMBOL cap 688 128 R0
SYMATTR InstName C7
SYMATTR Value 1n
SYMBOL cap 800 288 M90
WINDOW 0 0 32 VBottom 2
WINDOW 3 32 32 VTop 2
WINDOW 39 53 32 VTop 2
SYMATTR InstName C8
SYMATTR Value 330p
SYMATTR SpiceLine Rser=45.3K Cpar=47p
SYMBOL res 1200 480 R0
SYMATTR InstName R5
SYMATTR Value 15K
SYMBOL res 1200 592 R0
SYMATTR InstName R6
SYMATTR Value 10K
SYMBOL polcap -816 -384 R0
WINDOW 123 24 64 Left 2
WINDOW 3 37 33 Left 2
SYMATTR Value2 x2
SYMATTR Value 100µ
SYMATTR InstName C9
SYMATTR SpiceLine V=35 Irms=1.8 Rser=30m
SYMBOL cap -688 -384 R0
WINDOW 123 23 62 Left 2
WINDOW 3 37 35 Left 2
SYMATTR Value2 x3
SYMATTR Value 10µ
SYMATTR InstName C10
SYMATTR SpiceLine V=35 Rser=3m
SYMBOL cap 80 -512 R0
SYMATTR InstName C11
SYMATTR Value 0.1µ
SYMBOL res 96 -544 R90
WINDOW 0 0 56 VBottom 2
WINDOW 3 32 56 VTop 2
SYMATTR InstName R7
SYMATTR Value 2.2
SYMBOL polcap -1072 -48 R0
WINDOW 123 25 61 Left 2
WINDOW 3 36 36 Left 2
SYMATTR Value2 x2
SYMATTR Value 330µ
SYMATTR InstName C12
SYMATTR SpiceLine Rser=9m
SYMBOL cap -912 -48 R0
WINDOW 123 23 58 Left 2
WINDOW 3 33 32 Left 2
SYMATTR Value2 x2
SYMATTR Value 100µ
SYMATTR InstName C13
SYMATTR SpiceLine Rser=3m
SYMBOL cap 1232 -64 R0
WINDOW 123 23 57 Left 2
WINDOW 3 35 32 Left 2
SYMATTR Value2 x2
SYMATTR Value 100µ
SYMATTR InstName C14
SYMATTR SpiceLine Rser=3m
SYMBOL polcap 1360 -64 R0
WINDOW 123 23 60 Left 2
WINDOW 3 41 34 Left 2
SYMATTR Value2 x2
SYMATTR Value 330µ
SYMATTR InstName C15
SYMATTR SpiceLine Rser=9m
SYMBOL res -704 -96 R90
WINDOW 0 0 56 VBottom 2
WINDOW 3 32 56 VTop 2
SYMATTR InstName R8
SYMATTR Value 2.5m
SYMBOL res -384 96 R90
WINDOW 0 0 56 VBottom 2
WINDOW 3 32 56 VTop 2
SYMATTR InstName R9
SYMATTR Value 10
SYMBOL res -384 192 R90
WINDOW 0 0 56 VBottom 2
WINDOW 3 32 56 VTop 2
SYMATTR InstName R10
SYMATTR Value 10
SYMBOL res 1200 -96 R90
WINDOW 0 0 56 VBottom 2
WINDOW 3 32 56 VTop 2
SYMATTR InstName R11
SYMATTR Value 2.5m
SYMBOL res 848 192 R90
WINDOW 0 0 56 VBottom 2
WINDOW 3 32 56 VTop 2
SYMATTR InstName R12
SYMATTR Value 10
SYMBOL res 848 96 R90
WINDOW 0 0 56 VBottom 2
WINDOW 3 32 56 VTop 2
SYMATTR InstName R13
SYMATTR Value 10
SYMBOL cap 752 480 R90
WINDOW 0 0 32 VBottom 2
WINDOW 3 32 32 VTop 2
SYMATTR InstName C16
SYMATTR Value 1n
SYMBOL res 336 -528 R0
SYMATTR InstName R14
SYMATTR Value 100K
SYMBOL res -128 -544 R0
SYMATTR InstName R15
SYMATTR Value 100K
SYMBOL res -1200 -80 R0
WINDOW 3 33 89 Left 2
SYMATTR Value .08
SYMATTR InstName Rload1
SYMBOL res 1488 -80 R0
WINDOW 3 33 89 Left 2
SYMATTR Value .1
SYMATTR InstName Rload2
TEXT 896 672 Left 2 !.tran 750u startup
TEXT 264 -584 Bottom 2 ;LTC3838 - Dual, Fast, Accurate Step-Down DC/DC Controller with Differential Output Sensing\nWide Input Range, High Efficiency Step-Down DC/DC Converter with Rsense Current Sensing\nInput: 4.5V to 26V     Outputs: 1.2V @ 15A & 1.5V @ 15A, Fsw = 300kHz
TEXT -392 880 Left 2 ;Notes:\n  Small value is used for the TRACK/SS capacitors to reduce simulation time. Typical values will vary from 10nF to 100nF.\n  More output capacitors may be needed to meet load step and output voltage requirements.\n  If the simulation model is not found please update with the "Sync Release" command from the "Tools" menu.\n  It remains the customer's responsibility to verify proper and reliable operation in the actual application.\n  Component substitution and printed circuit board layout may significantly affect circuit performance or reliability.\n  Contact your local sales representative for assistance. This circuit is distributed to customers only for use with LTC parts.\n  Copyright © 2012 Linear Technology Inc. All rights reserved.
