Version 4
SHEET 1 1068 1412
WIRE -160 -48 -320 -48
WIRE -80 -48 -160 -48
WIRE -48 -48 -80 -48
WIRE 336 -48 208 -48
WIRE 464 -48 336 -48
WIRE -320 -32 -320 -48
WIRE 336 -32 336 -48
WIRE 464 -32 464 -48
WIRE -160 -16 -160 -48
WIRE -80 32 -80 -48
WIRE -48 32 -80 32
WIRE 256 32 208 32
WIRE 336 64 336 32
WIRE 464 64 464 48
WIRE -320 80 -320 48
WIRE -160 80 -160 48
WIRE -48 112 -80 112
WIRE 256 112 256 96
WIRE 256 112 208 112
WIRE -80 144 -80 112
FLAG 464 -48 OUT
FLAG 336 64 0
FLAG 464 64 0
FLAG -320 80 0
FLAG -160 80 0
FLAG -80 144 0
FLAG -320 -48 IN
SYMBOL cap 240 96 M180
WINDOW 0 25 57 Left 0
WINDOW 3 24 8 Left 0
SYMATTR InstName C1
SYMATTR Value 2.2µ
SYMATTR SpiceLine V=10 Irms=11.471 Rser=0.004 MTBF=0 Lser=0 mfg="KEMET" pn="C0603C225K8PAC" type="X5R" ppPkg=1
SYMBOL cap 320 -32 R0
SYMATTR InstName C2
SYMATTR Value 4.7µ
SYMATTR SpiceLine V=10 Irms=10.158 Rser=0.004 MTBF=0 Lser=0 mfg="KEMET" pn="C0805C475K8PAC" type="X5R" ppPkg=1
SYMBOL cap -176 -16 R0
SYMATTR InstName C3
SYMATTR Value 2.2µ
SYMATTR SpiceLine V=10 Irms=11.471 Rser=0.004 MTBF=0 Lser=0 mfg="KEMET" pn="C0603C225K8PAC" type="X5R" ppPkg=1
SYMBOL voltage -320 -48 R0
WINDOW 123 0 0 Left 0
WINDOW 39 24 132 Left 0
SYMATTR InstName V1
SYMATTR Value 4
SYMBOL res 448 -48 R0
SYMATTR InstName Rload
SYMATTR Value 66
SYMBOL PowerProducts\\LTC3204-3.3 80 32 R0
SYMATTR InstName U1
TEXT 360 152 Left 0 !.tran 1m startup
TEXT 88 -120 Bottom 0 ;LTC3204-3.3 - Low Noise Regulated Charge Pump in 2×2 DFN\nInput: 1.8V-4.5V   Output 3.3V @ 50mA
TEXT -504 136 Left 0 ;Notes:\n \n  1.  All Capacitors are Ceramic\n \n  2.  If the simulation model is not found please update with the "Sync Release" command from the "Tools" menu.\n       It remains the customer's responsibility to verify proper and reliable operation in the actual application.\n       Component substitution and printed circuit board layout may significantly affect circuit performance or reliability\n       Contact your local sales representative for assistance. This circuit is distributed to customers only for use with LTC parts\n       Copyright © 2006 Linear Technology Inc. All rights reserved.
