Version 4
SHEET 1 1068 760
WIRE -160 -32 -256 -32
WIRE -48 -32 -160 -32
WIRE 32 -32 -48 -32
WIRE 176 -32 32 -32
WIRE 320 -32 176 -32
WIRE 384 -32 320 -32
WIRE -256 -16 -256 -32
WIRE -160 -16 -160 -32
WIRE 176 -16 176 -32
WIRE -48 16 -48 -32
WIRE 384 16 384 -32
WIRE 32 32 32 -32
WIRE 48 32 32 32
WIRE 320 32 320 -32
WIRE 320 32 304 32
WIRE -256 80 -256 64
WIRE -160 80 -160 48
WIRE -48 128 -48 96
WIRE 48 128 -48 128
WIRE 384 128 384 96
WIRE 384 128 304 128
WIRE -368 224 -512 224
WIRE -256 224 -368 224
WIRE -96 224 -256 224
WIRE -48 224 -96 224
WIRE 48 224 32 224
WIRE 320 224 304 224
WIRE 432 224 400 224
WIRE 528 224 432 224
WIRE 608 224 528 224
WIRE 720 224 608 224
WIRE -512 240 -512 224
WIRE -368 240 -368 224
WIRE -256 240 -256 224
WIRE -96 240 -96 224
WIRE 432 240 432 224
WIRE 528 240 528 224
WIRE 608 240 608 224
WIRE 720 240 720 224
WIRE 48 320 -96 320
WIRE 432 320 304 320
WIRE 528 320 528 304
WIRE 528 320 432 320
WIRE -512 336 -512 320
WIRE -368 336 -368 304
WIRE -256 336 -256 304
WIRE -96 336 -96 320
WIRE 432 336 432 320
WIRE 608 336 608 304
WIRE 720 336 720 320
WIRE 128 384 128 368
WIRE 128 384 32 384
WIRE 224 384 224 368
WIRE 32 400 32 384
WIRE 128 400 128 384
WIRE -96 432 -96 416
WIRE 432 432 432 416
WIRE 32 496 32 464
WIRE 128 496 128 480
FLAG 432 432 0
FLAG 608 336 0
FLAG 224 384 0
FLAG 32 496 0
FLAG 128 496 0
FLAG -96 432 0
FLAG -368 336 0
FLAG -256 80 0
FLAG -512 224 OUT2
FLAG 720 224 OUT1
FLAG -256 -32 IN
FLAG 720 336 0
FLAG -160 80 0
FLAG -256 336 0
FLAG -512 336 0
SYMBOL voltage -256 -32 R0
WINDOW 123 0 0 Left 0
WINDOW 39 0 0 Left 0
SYMATTR InstName V1
SYMATTR Value 5
SYMBOL ind 304 240 R270
WINDOW 0 32 56 VTop 0
WINDOW 3 5 56 VBottom 0
SYMATTR InstName L1
SYMATTR Value 3.3µ
SYMBOL ind 48 240 M270
WINDOW 0 32 56 VTop 0
WINDOW 3 5 56 VBottom 0
SYMATTR InstName L2
SYMATTR Value 1.5µ
SYMBOL cap 512 240 R0
SYMATTR InstName C1
SYMATTR Value 10p
SYMBOL res 416 224 R0
SYMATTR InstName R1
SYMATTR Value 1Meg
SYMBOL res 416 320 R0
SYMATTR InstName R2
SYMATTR Value 221K
SYMBOL cap 592 240 R0
SYMATTR InstName C2
SYMATTR Value 4.7µ
SYMATTR SpiceLine Rser=5m
SYMBOL res 112 384 R0
SYMATTR InstName R3
SYMATTR Value 110K
SYMBOL cap 16 400 R0
SYMATTR InstName C3
SYMATTR Value 2200p
SYMBOL res -112 224 R0
SYMATTR InstName R4
SYMATTR Value 1Meg
SYMBOL res -112 320 R0
SYMATTR InstName R5
SYMATTR Value 215K
SYMBOL PowerProducts\\LTC3619B 176 176 R0
SYMATTR InstName U1
SYMBOL cap -176 -16 R0
SYMATTR InstName C4
SYMATTR Value 10µ
SYMATTR SpiceLine Rser=5m
SYMBOL res -64 0 R0
SYMATTR InstName R6
SYMATTR Value 200K
SYMBOL res 368 0 R0
SYMATTR InstName R7
SYMATTR Value 200K
SYMBOL polcap -272 240 R0
WINDOW 40 24 82 Left 0
SYMATTR InstName C5
SYMATTR Value {2200µ/10}
SYMATTR SpiceLine V=6.3 Rser=55m
SYMBOL cap -384 240 R0
SYMATTR InstName C6
SYMATTR Value 4.7µ
SYMATTR SpiceLine Rser=5m
SYMBOL res 704 224 R0
SYMATTR InstName Rload1
SYMATTR Value 8.25
SYMBOL res -528 224 R0
SYMATTR InstName Rload2
SYMATTR Value 20
TEXT 536 456 Left 0 !.tran 2m startup
TEXT 176 -56 Bottom 0 ;LTC3619B - 400mA / 800mA Synchronous Step-Down DC/DC with Average Input Current Limit\nInput: 4.5V - 5.5V     Outputs: 3.3V @ 0.4A and 3.4V @ 2A (Pulsed Load)
TEXT 720 360 Top 0 ;3.3V @ 0.4A
TEXT -512 360 Top 0 ;3.4V @ 2A Pulse Load
TEXT -392 520 Left 0 ;Note:\n  C5's value has been reduced 10 fold to shorten simulation time.  It is intended to be a super cap that supports\n  a 2A pulsed load.\n \n  If the simulation model is not found please update with the "Sync Release" command from the "Tools" menu.\n  It remains the customer's responsibility to verify proper and reliable operation in the actual application.\n  Component substitution and printed circuit board layout may significantly affect circuit performance or reliability.\n  Contact your local sales representative for assistance. This circuit is distributed to customers only for use with LTC parts.\n  Copyright © 2011 Linear Technology Inc. All rights reserved.
