Version 4
SHEET 1 4132 960
WIRE -832 -400 -1264 -400
WIRE -784 -400 -832 -400
WIRE -688 -400 -784 -400
WIRE -608 -400 -688 -400
WIRE 1184 -400 -608 -400
WIRE -1264 -384 -1264 -400
WIRE -784 -384 -784 -400
WIRE -688 -384 -688 -400
WIRE 416 -384 -512 -384
WIRE 832 -384 416 -384
WIRE 880 -384 832 -384
WIRE 992 -384 880 -384
WIRE 1104 -384 992 -384
WIRE 1216 -384 1104 -384
WIRE 1280 -384 1216 -384
WIRE -608 -368 -608 -400
WIRE 224 -368 -224 -368
WIRE 656 -368 224 -368
WIRE 752 -368 656 -368
WIRE 880 -368 880 -384
WIRE 992 -368 992 -384
WIRE 1104 -368 1104 -384
WIRE 1280 -368 1280 -384
WIRE 752 -352 752 -368
WIRE 224 -336 224 -368
WIRE 416 -336 416 -384
WIRE -784 -304 -784 -320
WIRE -688 -304 -688 -320
WIRE -1264 -288 -1264 -304
WIRE 880 -288 880 -304
WIRE 992 -288 992 -304
WIRE 1104 -288 1104 -304
WIRE -608 -272 -608 -288
WIRE -96 -272 -608 -272
WIRE 560 -272 544 -272
WIRE 656 -272 656 -368
WIRE 656 -272 640 -272
WIRE 752 -272 752 -288
WIRE 1280 -272 1280 -288
WIRE -608 -256 -608 -272
WIRE -512 -256 -512 -384
WIRE 656 -256 656 -272
WIRE 832 -256 832 -384
WIRE -96 -176 -464 -176
WIRE 784 -176 544 -176
WIRE -608 -160 -608 -176
WIRE -224 -160 -224 -368
WIRE -224 -80 -224 -96
WIRE -96 -80 -224 -80
WIRE 656 -80 656 -192
WIRE 656 -80 544 -80
WIRE -224 -64 -224 -80
WIRE 656 -64 656 -80
WIRE -832 16 -832 -400
WIRE -624 16 -832 16
WIRE -512 16 -512 -160
WIRE -512 16 -544 16
WIRE -304 16 -512 16
WIRE -224 16 -224 0
WIRE -224 16 -304 16
WIRE -96 16 -224 16
WIRE 656 16 656 0
WIRE 656 16 544 16
WIRE 752 16 656 16
WIRE 832 16 832 -160
WIRE 832 16 752 16
WIRE 864 16 832 16
WIRE 1184 16 1184 -400
WIRE 1184 16 944 16
WIRE -512 32 -512 16
WIRE 832 32 832 16
WIRE -96 112 -464 112
WIRE 784 112 544 112
WIRE -512 144 -512 128
WIRE 832 144 832 128
WIRE -832 208 -832 16
WIRE -176 208 -832 208
WIRE -96 208 -176 208
WIRE 592 208 544 208
WIRE 1184 208 1184 16
WIRE 1184 208 592 208
WIRE -176 224 -176 208
WIRE 592 224 592 208
WIRE -304 304 -304 16
WIRE -288 304 -304 304
WIRE -176 304 -176 288
WIRE -176 304 -208 304
WIRE -96 304 -176 304
WIRE 592 304 592 288
WIRE 592 304 544 304
WIRE 656 304 592 304
WIRE 752 304 752 16
WIRE 752 304 736 304
WIRE -432 400 -464 400
WIRE -320 400 -352 400
WIRE -96 400 -320 400
WIRE 640 400 544 400
WIRE 688 400 640 400
WIRE 800 400 768 400
WIRE 640 416 640 400
WIRE 800 416 800 400
WIRE -320 432 -320 400
WIRE -176 496 -192 496
WIRE -96 496 -112 496
WIRE 560 496 544 496
WIRE 640 496 640 480
WIRE 800 496 800 480
WIRE -320 528 -320 512
WIRE 48 640 48 560
WIRE 112 640 48 640
WIRE 288 640 288 560
WIRE 288 640 192 640
WIRE 288 656 288 640
WIRE -464 704 -464 400
WIRE 1216 704 1216 -384
WIRE 1216 704 -464 704
FLAG 752 -272 0
FLAG -1264 -288 0
FLAG -512 144 0
FLAG -1264 -400 IN
FLAG 832 144 0
FLAG 1280 -272 0
FLAG 1280 -384 OUT
FLAG 992 -288 0
FLAG -608 -160 0
FLAG 288 656 0
FLAG 640 496 0
FLAG 800 496 0
FLAG 560 496 0
FLAG -192 496 0
FLAG -320 528 0
FLAG 1104 -288 0
FLAG -784 -304 0
FLAG -688 -304 0
FLAG 880 -288 0
SYMBOL cap 736 -352 R0
SYMATTR Value 4.7µ
SYMATTR InstName C8
SYMBOL res 656 -288 R90
WINDOW 0 0 56 VBottom 2
WINDOW 3 32 56 VTop 2
SYMATTR InstName R2
SYMATTR Value 100K
SYMBOL voltage -1264 -400 R0
WINDOW 123 24 138 Left 2
WINDOW 39 24 117 Left 2
SYMATTR Value PWL(0 0 0.01m 8 0.4m 8 0.9m 14)
SYMATTR InstName V1
SYMBOL ind -640 32 R270
WINDOW 0 32 56 VTop 2
WINDOW 3 5 56 VBottom 2
SYMATTR InstName L1
SYMATTR Value 1.4µ
SYMATTR SpiceLine Rser=0.00108
SYMBOL nmos -464 -256 M0
WINDOW 0 2 24 Right 2
WINDOW 3 43 119 Right 2
SYMATTR InstName Q1
SYMATTR Value BSC030N03LS
SYMBOL nmos -464 32 M0
WINDOW 0 0 19 Right 2
WINDOW 3 25 112 Right 2
SYMATTR InstName Q2
SYMATTR Value BSC030N03LS
SYMBOL cap -240 -64 R0
WINDOW 3 24 52 Left 2
SYMATTR Value .1µ
SYMATTR InstName C4
SYMBOL schottky -240 -160 R0
WINDOW 3 28 65 Left 2
SYMATTR Value MBR0540
SYMATTR InstName D1
SYMATTR Description Diode
SYMATTR Type diode
SYMBOL res -336 416 R0
SYMATTR InstName R8
SYMATTR Value 25.5K
SYMBOL res -448 416 R270
WINDOW 0 32 56 VTop 2
WINDOW 3 0 56 VBottom 2
SYMATTR InstName R6
SYMATTR Value 232K
SYMBOL cap -176 512 R270
WINDOW 0 32 32 VTop 2
WINDOW 3 0 32 VBottom 2
SYMATTR InstName C15
SYMATTR Value 0.001µ
SYMBOL ind 960 32 M270
WINDOW 0 32 56 VTop 2
WINDOW 3 5 56 VBottom 2
SYMATTR InstName L2
SYMATTR Value 1.4µ
SYMATTR SpiceLine Rser=0.00108
SYMBOL nmos 784 -256 R0
WINDOW 0 57 19 Left 2
WINDOW 3 55 78 Left 2
SYMATTR InstName Q3
SYMATTR Value BSC030N03LS
SYMBOL nmos 784 32 R0
WINDOW 3 55 72 Left 2
WINDOW 0 52 26 Left 2
SYMATTR Value BSC030N03LS
SYMATTR InstName Q4
SYMBOL cap 640 -64 R0
WINDOW 3 26 56 Left 2
SYMATTR Value .1µ
SYMATTR InstName C9
SYMBOL schottky 640 -256 R0
WINDOW 3 24 65 Left 2
SYMATTR Value MBR0540
SYMATTR InstName D2
SYMATTR Description Diode
SYMATTR Type diode
SYMBOL PowerProducts\\LTC3787 224 112 R0
SYMATTR InstName U1
SYMBOL res 1264 -384 R0
SYMATTR InstName Rload
SYMATTR Value 0.666
SYMBOL cap 624 416 R0
SYMATTR InstName C1
SYMATTR Value 100p
SYMBOL cap 784 416 R0
SYMATTR InstName C3
SYMATTR Value 15n
SYMBOL res 672 416 R270
WINDOW 0 32 56 VTop 2
WINDOW 3 0 56 VBottom 2
SYMATTR InstName R9
SYMATTR Value 5K
SYMBOL cap 976 -368 R0
SYMATTR InstName Cout2
SYMATTR Value 270µ
SYMATTR SpiceLine Rser=2mohm
SYMBOL res -624 -272 R0
SYMATTR InstName R34
SYMATTR Value 12.1K
SYMBOL res -624 -384 R0
SYMATTR InstName R33
SYMATTR Value 38.3K
SYMBOL cap 576 224 R0
SYMATTR Value 330n
SYMATTR InstName C2
SYMBOL res 752 288 R90
WINDOW 0 0 56 VBottom 2
WINDOW 3 32 56 VTop 2
SYMATTR InstName R1
SYMATTR Value 3.92K
SYMBOL cap -192 224 R0
SYMATTR Value 330n
SYMATTR InstName C5
SYMBOL res -192 288 R90
WINDOW 0 0 56 VBottom 2
WINDOW 3 32 56 VTop 2
SYMATTR InstName R3
SYMATTR Value 3.92k
SYMBOL res 208 624 R90
WINDOW 0 0 56 VBottom 2
WINDOW 3 32 56 VTop 2
SYMATTR InstName R4
SYMATTR Value 49.9K
SYMBOL cap 1088 -368 R0
SYMATTR InstName Cout3
SYMATTR Value 270µ
SYMATTR SpiceLine Rser=2mohm
SYMBOL cap -800 -384 R0
SYMATTR InstName CIN1
SYMATTR Value 47µ
SYMATTR SpiceLine Rser=2mohm
SYMBOL cap -704 -384 R0
SYMATTR InstName CIN2
SYMATTR Value 270µ
SYMATTR SpiceLine Rser=2mohm
SYMBOL cap 864 -368 R0
SYMATTR InstName Cout1
SYMATTR Value 47µ
SYMATTR SpiceLine Rser=2mohm
TEXT 200 -504 Bottom 3 ;LTC3787 - PolyPhase Synchronous Boost Controller\nHigh Current 2-Phase Synchronous Boost Converter with Inductor DCR Sensing\nInput: 7V to 16V     Output: 12V @ 18A
TEXT 680 576 Left 2 ;L1, L2: Wurth 7443630140\nCIN1, Cout1 4x22uF/25V\nCIN2, Cout2, Cout3 25HVH270M\nC15 is 0.1uF
TEXT 936 736 Left 2 !.tran 0 2m 0 2u startup
TEXT 152 -416 Bottom 2 ;This simulation demonstrates LTC3787 functionality in two modes of operation: 'regular' boost converter, when input voltage of 8V steps-up to 12V, \nand 'wire' mode, when Vin>12V. In the 'wire' mode circuit provides maximum efficiency by permanently keeping Q1 and Q3 in the 'on' state \nand by utilizing DCR sensing. Initial input voltage of 8V increased to 14V at  0.4 ms of the simulation time.
TEXT -576 704 Left 2 ;Notes:\n  If the simulation model is not found please update with the "Sync Release" command from the "Tools" menu.\n  It remains the customer's responsibility to verify proper and reliable operation in the actual application.\n  Component substitution and printed circuit board layout may significantly affect circuit performance or reliability.\n  Contact your local sales representative for assistance. This circuit is distributed to customers only for use with LTC parts.\n  Copyright © 2012 Linear Technology Inc. All rights reserved.
