Version 4
SHEET 1 2184 704
WIRE 144 -16 -176 -16
WIRE 352 -16 144 -16
WIRE 464 -16 400 -16
WIRE 560 -16 528 -16
WIRE 624 -16 560 -16
WIRE 720 -16 624 -16
WIRE -176 0 -176 -16
WIRE 144 0 144 -16
WIRE 624 0 624 -16
WIRE 720 0 720 -16
WIRE 352 16 352 -16
WIRE 400 16 400 -16
WIRE -176 96 -176 80
WIRE 64 96 48 96
WIRE 144 96 144 80
WIRE 144 96 128 96
WIRE 624 96 624 64
WIRE 720 96 720 80
WIRE 352 112 352 96
WIRE 560 112 560 -16
WIRE 400 128 400 96
WIRE 144 144 144 96
WIRE 304 192 272 192
WIRE -160 256 -176 256
WIRE -80 256 -96 256
WIRE 16 256 0 256
WIRE 352 256 352 208
WIRE 352 256 272 256
WIRE 560 256 560 192
WIRE 560 256 480 256
WIRE 352 272 352 256
WIRE 560 272 560 256
WIRE 304 320 272 320
WIRE 352 368 352 352
WIRE 560 368 560 352
WIRE 144 384 144 368
WIRE 304 400 304 320
WIRE 480 400 480 256
WIRE 480 400 304 400
FLAG 144 384 0
FLAG 352 368 0
FLAG -176 96 0
FLAG 400 128 0
FLAG 624 96 0
FLAG 720 96 0
FLAG -176 256 0
FLAG 720 -16 OUT
FLAG 560 368 0
FLAG 48 96 0
FLAG -176 -16 IN
SYMBOL PowerProducts\\LTC3803 144 256 R0
SYMATTR InstName U1
SYMBOL ind2 336 0 R0
WINDOW 0 -5 33 Right 0
WINDOW 3 -2 77 Right 0
SYMATTR InstName L1
SYMATTR Value 76µ
SYMATTR Type ind
SYMATTR SpiceLine Ipk=3.0 Rser=0.01 Cpar=1pF
SYMBOL ind2 416 112 R180
WINDOW 0 -3 80 Right 0
WINDOW 3 -3 37 Right 0
SYMATTR InstName L2
SYMATTR Value 1µ
SYMATTR Type ind
SYMATTR SpiceLine Ipk=20 Rser=1m Cpar=2pF
SYMBOL nmos 304 112 R0
WINDOW 0 46 29 Left 0
SYMATTR InstName Q1
SYMATTR Value Si4848DY
SYMBOL res 336 256 R0
SYMATTR InstName R1
SYMATTR Value 0.068
SYMBOL res 128 -16 R0
SYMATTR InstName R2
SYMATTR Value 6.8K
SYMBOL schottky 464 0 R270
WINDOW 0 32 32 VTop 0
WINDOW 3 0 32 VBottom 0
SYMATTR InstName D1
SYMATTR Value 1N5817
SYMATTR Description Diode
SYMATTR Type diode
SYMBOL res 544 208 M180
WINDOW 0 36 76 Left 0
WINDOW 3 36 40 Left 0
SYMATTR InstName R3
SYMATTR Value 105K
SYMBOL res 544 368 M180
WINDOW 0 36 76 Left 0
WINDOW 3 36 40 Left 0
SYMATTR InstName R4
SYMATTR Value 20K
SYMBOL cap 608 0 R0
SYMATTR InstName C1
SYMATTR Value 300µ
SYMATTR SpiceLine Rser=10m
SYMBOL cap 128 80 R90
WINDOW 0 0 32 VBottom 0
WINDOW 3 32 32 VTop 0
SYMATTR InstName C2
SYMATTR Value 10µ
SYMATTR SpiceLine V=25 Irms=0 Rser=0.001 MTBF=0 Lser=0 mfg="TDK" pn="C575OX7RIE106M" type="X7R" ppPkg=1
SYMBOL res 16 240 R90
WINDOW 0 0 56 VBottom 0
WINDOW 3 32 56 VTop 0
SYMATTR InstName R5
SYMATTR Value 56K
SYMBOL cap -96 240 R90
WINDOW 0 0 32 VBottom 0
WINDOW 3 32 32 VTop 0
SYMATTR InstName C3
SYMATTR Value .0022µ
SYMBOL voltage -176 -16 R0
WINDOW 123 24 132 Left 0
SYMATTR Value2 21m 36 22m 72)
SYMATTR InstName V1
SYMATTR Value PWL(0 0 20u 36
SYMBOL res 704 -16 R0
SYMATTR InstName Rload
SYMATTR Value 2.5
SYMATTR SpiceLine pwr=12
TEXT 384 -40 Bottom 0 !K1 L1 L2 1
TEXT 608 376 Left 0 !.tran 22ms  startup
TEXT 272 -72 Bottom 0 ;LTC3803 - Constant Frequency Current Mode Flyback DC/DC Controller in ThinSOT\n5V Output Nonisolated Telecom Housekeeping Power Supply\nInput: 36V to 72V     Output: 5V at 2A
TEXT -320 400 Left 0 ;Note:\n  If the simulation model is not found please update with the "Sync Release" command from the "Tools" menu.\n  It remains the customer's responsibility to verify proper and reliable operation in the actual application.\n  Component substitution and printed circuit board layout may significantly affect circuit performance or reliability\n  Contact your local sales representative for assistance. This circuit is distributed to customers only for use with LTC parts\n  Copyright © 2011 Linear Technology Inc. All rights reserved.
