Version 4
SHEET 1 1780 1212
WIRE 16 128 -64 128
WIRE 112 128 16 128
WIRE 224 128 112 128
WIRE 336 128 224 128
WIRE 432 128 336 128
WIRE 528 128 432 128
WIRE 720 128 528 128
WIRE -64 144 -64 128
WIRE 16 144 16 128
WIRE 336 160 336 128
WIRE 432 160 432 128
WIRE 528 160 528 128
WIRE 112 224 112 128
WIRE 128 224 112 224
WIRE 256 224 208 224
WIRE 624 224 608 224
WIRE 720 224 720 128
WIRE 720 224 704 224
WIRE -64 240 -64 224
WIRE 16 240 16 208
WIRE 224 320 224 128
WIRE 256 320 224 320
WIRE 720 320 720 224
WIRE 720 320 608 320
WIRE 256 416 144 416
WIRE 752 416 608 416
WIRE 848 416 832 416
WIRE 960 416 848 416
WIRE 1040 416 960 416
WIRE 144 432 144 416
WIRE 848 432 848 416
WIRE 960 432 960 416
WIRE 1040 432 1040 416
WIRE 256 512 144 512
WIRE 848 512 608 512
WIRE 848 528 848 512
WIRE 960 528 960 496
WIRE 1040 528 1040 512
WIRE 32 608 -96 608
WIRE 128 608 32 608
WIRE 256 608 128 608
WIRE 624 608 608 608
WIRE 720 608 720 320
WIRE 720 608 704 608
WIRE -96 624 -96 608
WIRE 32 624 32 608
WIRE 128 624 128 608
WIRE 848 624 848 608
WIRE 256 704 128 704
WIRE 720 704 720 608
WIRE 720 704 608 704
WIRE -96 720 -96 704
WIRE 32 720 32 688
WIRE 128 720 128 704
WIRE 224 800 224 320
WIRE 256 800 224 800
WIRE 624 800 608 800
WIRE 736 800 704 800
WIRE 864 800 736 800
WIRE 992 800 864 800
WIRE 128 816 128 800
WIRE 736 816 736 800
WIRE 864 816 864 800
WIRE 992 816 992 800
WIRE 256 896 240 896
WIRE 736 896 608 896
WIRE 736 912 736 896
WIRE 864 912 864 880
WIRE 992 912 992 896
WIRE 320 976 320 960
WIRE 432 976 432 960
WIRE 544 976 544 960
WIRE 736 1008 736 992
FLAG -64 240 0
FLAG -96 720 0
FLAG 128 816 0
FLAG 32 720 0
FLAG 848 624 0
FLAG 960 528 0
FLAG 1040 528 0
FLAG 320 976 0
FLAG 432 976 0
FLAG 544 976 0
FLAG 1040 416 OUT2
FLAG -96 608 OUT1
FLAG 240 896 0
FLAG 736 1008 0
FLAG 864 912 0
FLAG 992 912 0
FLAG 992 800 OUT3
FLAG -64 128 IN
FLAG 16 240 0
SYMBOL voltage -64 128 R0
WINDOW 3 26 96 Left 2
SYMATTR Value 3
SYMATTR InstName V1
SYMBOL res 112 608 R0
SYMATTR InstName R1
SYMATTR Value 1Meg
SYMBOL res 112 704 R0
SYMATTR InstName R2
SYMATTR Value 221K
SYMBOL cap 16 624 R0
SYMATTR InstName C2
SYMATTR Value 22µ
SYMBOL ind 736 432 R270
WINDOW 0 32 56 VTop 2
WINDOW 3 5 56 VBottom 2
SYMATTR InstName L1
SYMATTR Value 6.8µ
SYMATTR SpiceLine Rser=100m
SYMBOL res 832 416 R0
SYMATTR InstName R3
SYMATTR Value 137K
SYMBOL res 832 512 R0
SYMATTR InstName R4
SYMATTR Value 68.1K
SYMBOL cap 944 432 R0
SYMATTR InstName C3
SYMATTR Value 10µ
SYMBOL ind 160 416 M0
WINDOW 0 1 18 Right 2
WINDOW 3 3 78 Right 2
SYMATTR InstName L2
SYMATTR Value 4.7µ
SYMATTR SpiceLine Rser=65m
SYMBOL res 1024 416 R0
SYMATTR InstName Rload2
SYMATTR Value 3
SYMBOL res -112 608 R0
SYMATTR InstName Rload1
SYMATTR Value 4
SYMBOL PowerProducts\\LTC3521 432 560 R0
SYMATTR InstName U1
SYMBOL ind 608 816 R270
WINDOW 0 32 56 VTop 2
WINDOW 3 5 56 VBottom 2
SYMATTR InstName L3
SYMATTR Value 6.8µ
SYMATTR SpiceLine Rser=100m
SYMBOL res 720 800 R0
SYMATTR InstName R5
SYMATTR Value 100K
SYMBOL res 720 896 R0
SYMATTR InstName R6
SYMATTR Value 100K
SYMBOL cap 848 816 R0
SYMATTR InstName C1
SYMATTR Value 10µ
SYMBOL res 976 800 R0
SYMATTR InstName Rload3
SYMATTR Value 2
SYMBOL cap 0 144 R0
SYMATTR InstName C4
SYMATTR Value 22µ
SYMBOL res 224 208 R90
WINDOW 0 0 56 VBottom 2
WINDOW 3 32 56 VTop 2
SYMATTR InstName R7
SYMATTR Value 10K
SYMBOL res 720 592 R90
WINDOW 0 0 56 VBottom 2
WINDOW 3 32 56 VTop 2
SYMATTR InstName R8
SYMATTR Value 10K
SYMBOL res 720 208 R90
WINDOW 0 0 56 VBottom 2
WINDOW 3 32 56 VTop 2
SYMATTR InstName R9
SYMATTR Value 10K
TEXT 960 992 Left 2 !.tran 750u startup
TEXT -16 608 Bottom 2 ;3.3V
TEXT 960 416 Bottom 2 ;1.8V
TEXT 920 800 Bottom 2 ;1.2V
TEXT -96 1024 Left 2 ;Note:\n  If the simulation model is not found please update with the "Sync Release" command from the "Tools" menu.\n  It remains the customer's responsibility to verify proper and reliable operation in the actual application.\n  Component substitution and printed circuit board layout may significantly affect circuit performance or reliability.\n  Contact your local sales representative for assistance. This circuit is distributed to customers only for use with LTC parts.\n  Copyright © 2011 Linear Technology Inc. All rights reserved.
TEXT 512 112 Bottom 2 ;LTC3521 - 1A Buck-Boost DC/DC and Dual 600mA Buck DC/DC Converters\nInput: 2.4V to 5V     Ouputs: 3.3V @ 1A, 1.8V @ 600mA & 1.2V @ 600mA
