Version 4
SHEET 1 2668 1144
WIRE -384 480 -384 464
WIRE -384 576 -384 544
WIRE -336 464 -384 464
WIRE -288 272 -304 272
WIRE -240 352 -240 336
WIRE -240 432 -240 416
WIRE -224 464 -256 464
WIRE -224 480 -224 464
WIRE -224 576 -224 544
WIRE -208 336 -240 336
WIRE -192 784 -208 784
WIRE -176 -64 -176 -128
WIRE -176 80 -176 16
WIRE -176 112 -176 80
WIRE -176 272 -208 272
WIRE -176 272 -176 192
WIRE -128 592 -128 528
WIRE -128 848 -208 848
WIRE -112 592 -128 592
WIRE -96 208 -112 208
WIRE -96 336 -128 336
WIRE -96 352 -96 336
WIRE -96 432 -96 416
WIRE -16 80 -176 80
WIRE -16 144 -32 144
WIRE -16 208 -32 208
WIRE -16 272 -176 272
WIRE -16 336 -96 336
WIRE -16 464 -224 464
WIRE -16 528 -128 528
WIRE -16 592 -32 592
WIRE -16 784 -112 784
WIRE -16 848 -48 848
WIRE 80 16 80 -16
WIRE 80 928 80 912
WIRE 240 -128 -176 -128
WIRE 240 -112 240 -128
WIRE 240 -16 80 -16
WIRE 240 -16 240 -32
WIRE 240 16 240 -16
WIRE 240 928 240 912
WIRE 352 400 336 400
WIRE 384 -16 240 -16
WIRE 400 144 336 144
WIRE 400 208 336 208
WIRE 400 272 336 272
WIRE 400 336 336 336
WIRE 400 336 400 272
WIRE 400 368 400 336
WIRE 400 528 336 528
WIRE 400 528 400 448
WIRE 496 336 400 336
WIRE 496 352 496 336
WIRE 496 464 336 464
WIRE 496 464 496 432
WIRE 512 656 336 656
WIRE 512 688 512 656
WIRE 544 464 496 464
WIRE 560 336 496 336
WIRE 624 80 336 80
WIRE 624 688 512 688
WIRE 640 336 624 336
WIRE 640 464 624 464
WIRE 672 -128 240 -128
WIRE 672 0 672 -128
WIRE 672 144 400 144
WIRE 672 144 672 96
WIRE 672 592 336 592
WIRE 672 592 672 144
WIRE 672 608 672 592
WIRE 672 720 336 720
WIRE 672 720 672 704
WIRE 672 736 672 720
WIRE 704 144 672 144
WIRE 784 -128 672 -128
WIRE 784 -96 784 -128
WIRE 784 0 784 -32
WIRE 816 144 784 144
WIRE 816 352 816 144
WIRE 816 528 816 416
WIRE 816 784 336 784
WIRE 816 784 816 528
WIRE 880 144 816 144
WIRE 880 208 880 144
WIRE 880 528 816 528
WIRE 880 528 880 288
WIRE 880 608 880 528
WIRE 880 704 880 688
WIRE 944 -128 784 -128
WIRE 944 -112 944 -128
WIRE 944 0 944 -32
WIRE 976 144 880 144
WIRE 976 848 336 848
WIRE 976 848 976 144
WIRE 1024 144 976 144
WIRE 1024 192 1024 144
WIRE 1024 288 1024 256
WIRE 1104 144 1024 144
WIRE 1104 192 1104 144
WIRE 1104 288 1104 256
WIRE 1200 144 1104 144
WIRE 1200 176 1200 144
WIRE 1200 288 1200 256
FLAG 944 0 0
FLAG 1200 144 OUT
FLAG 944 -128 IN
FLAG 784 0 0
FLAG 880 704 0
FLAG 240 928 0
FLAG 80 928 0
FLAG 384 48 0
FLAG -32 144 0
FLAG -112 208 0
FLAG -208 784 0
FLAG -240 432 0
FLAG -96 432 0
FLAG 672 736 0
FLAG 1024 288 0
FLAG 1104 288 0
FLAG 1200 288 0
FLAG 640 464 0
FLAG 640 336 0
FLAG 352 400 0
FLAG -304 272 0
FLAG -384 576 0
FLAG -224 576 0
FLAG -208 848 0
SYMBOL nmos 624 0 R0
SYMATTR InstName Q1
SYMATTR Value Si4884DY
SYMBOL nmos 624 608 R0
WINDOW 3 52 72 Left 0
SYMATTR Value Si4874DY
SYMATTR InstName Q2
SYMBOL cap 384 144 R0
WINDOW 0 40 16 Left 0
WINDOW 3 39 44 Left 0
SYMATTR InstName C1
SYMATTR Value .22µ
SYMBOL res 224 -128 R0
SYMATTR InstName R1
SYMATTR Value 10
SYMBOL cap -32 192 R90
WINDOW 0 0 32 VBottom 0
WINDOW 3 32 32 VTop 0
SYMATTR InstName C2
SYMATTR Value 2200p
SYMBOL res -96 768 R90
WINDOW 0 0 56 VBottom 0
WINDOW 3 32 56 VTop 0
SYMATTR InstName R2
SYMATTR Value 82K
SYMBOL cap -256 352 R0
SYMATTR InstName C3
SYMATTR Value 1000p
SYMBOL cap -112 352 R0
SYMATTR InstName C4
SYMATTR Value 100p
SYMBOL res -112 320 R90
WINDOW 0 0 56 VBottom 0
WINDOW 3 32 56 VTop 0
SYMATTR InstName R3
SYMATTR Value 10K
SYMBOL ind 688 160 R270
WINDOW 0 32 56 VTop 0
WINDOW 3 8 60 VBottom 0
SYMATTR InstName L1
SYMATTR Value 1.8µ
SYMATTR SpiceLine Rser=0.005
SYMBOL voltage 944 -128 R0
SYMATTR InstName V1
SYMATTR Value 12
SYMBOL res 864 592 R0
SYMATTR InstName R4
SYMATTR Value 30.1K
SYMBOL res 864 192 R0
SYMATTR InstName R5
SYMATTR Value 95.3K
SYMBOL cap 368 48 M180
WINDOW 0 30 59 Left 0
WINDOW 3 32 12 Left 0
SYMATTR InstName C5
SYMATTR Value .1µ
SYMBOL cap 768 -96 R0
WINDOW 3 25 51 Left 0
WINDOW 40 33 81 Left 0
SYMATTR Value 22µ
SYMATTR SpiceLine2 x2
SYMATTR InstName C6
SYMATTR SpiceLine Rser=0.003
SYMBOL cap 800 352 R0
WINDOW 3 18 62 Left 0
SYMATTR Value 100p
SYMATTR InstName C7
SYMBOL res -16 576 R90
WINDOW 3 32 56 VTop 0
WINDOW 0 2 53 VBottom 0
SYMATTR Value 10K
SYMATTR InstName R6
SYMBOL res -192 -80 R0
SYMATTR InstName R7
SYMATTR Value 10K
SYMBOL polcap 1008 192 R0
SYMATTR InstName C8
SYMATTR Value 180µ
SYMATTR SpiceLine V=4 Irms=3.4 Rser=0.015 MTBF=0 Lser=0 mfg="KEMET" pn="A700D187M004ATE015" type="Al electrolytic" ppPkg=1
SYMBOL schottky 384 272 M180
WINDOW 0 39 43 Left 0
WINDOW 3 33 10 Left 0
SYMATTR InstName D1
SYMATTR Value CMDSH2-3
SYMATTR Description Diode
SYMATTR Type diode
SYMBOL PowerProducts\\LTC3770 160 432 R0
SYMATTR InstName U1
SYMBOL res 480 336 R0
WINDOW 3 36 70 Left 0
SYMATTR Value 23.2K
SYMATTR InstName R8
SYMBOL res 528 480 R270
WINDOW 0 32 56 VTop 0
WINDOW 3 0 56 VBottom 0
SYMATTR InstName R9
SYMATTR Value 26.7K
SYMBOL cap 624 352 M270
WINDOW 0 32 32 VTop 0
WINDOW 3 0 32 VBottom 0
SYMATTR InstName C9
SYMATTR Value 10µ
SYMBOL res 384 352 R0
SYMATTR InstName R10
SYMATTR Value 100K
SYMBOL res -192 96 R0
SYMATTR InstName R11
SYMATTR Value 1K
SYMBOL res -192 256 R90
WINDOW 0 0 56 VBottom 0
WINDOW 3 32 56 VTop 0
SYMATTR InstName R12
SYMATTR Value 1.5K
SYMBOL cap -400 480 R0
SYMATTR InstName C10
SYMATTR Value .01µ
SYMBOL cap -240 480 R0
WINDOW 3 17 60 Left 0
SYMATTR Value 1000p
SYMATTR InstName C11
SYMBOL res -240 448 R90
WINDOW 0 0 56 VBottom 0
WINDOW 3 32 56 VTop 0
SYMATTR InstName R13
SYMATTR Value 10K
SYMBOL res -32 832 R90
WINDOW 0 0 56 VBottom 0
WINDOW 3 32 56 VTop 0
SYMATTR InstName R14
SYMATTR Value 133K
SYMBOL cap 1088 192 R0
WINDOW 3 25 51 Left 0
WINDOW 40 33 81 Left 0
SYMATTR Value 22µ
SYMATTR SpiceLine2 x2
SYMATTR InstName C12
SYMATTR SpiceLine Rser=0.003
SYMBOL res 1184 160 R0
SYMATTR InstName R15
SYMATTR Value 0.25
TEXT 746 888 Left 0 !.tran 1.2m startup
TEXT 360 -176 Center 0 ;LTC3770 - No Rsense, Synchronous Step-Down DC/DC Converter \nInput: 12V      Output: 2.5V at 10A
TEXT -384 944 Left 0 ;Note:\n  If the simulation model is not found please update with the "Sync Release" command from the "Tools" menu.\n  It remains the customer's responsibility to verify proper and reliable operation in the actual application.\n  Component substitution and printed circuit board layout may significantly affect circuit performance or reliability\n  Contact your local sales representative for assistance. This circuit is distributed to customers only for use with LTC parts\n  Copyright © 2006 Linear Technology Inc. All rights reserved.
