Version 4
SHEET 1 976 1672
WIRE -1440 176 -1552 176
WIRE -1344 176 -1440 176
WIRE -880 176 -1344 176
WIRE -192 176 -880 176
WIRE -1552 192 -1552 176
WIRE -1440 192 -1440 176
WIRE -736 192 -1120 192
WIRE -448 192 -736 192
WIRE -1344 224 -1344 176
WIRE -880 224 -880 176
WIRE -736 224 -736 192
WIRE -192 224 -192 176
WIRE -1552 288 -1552 272
WIRE -1440 288 -1440 256
WIRE -960 304 -1296 304
WIRE -240 304 -512 304
WIRE -1120 320 -1120 192
WIRE -448 320 -448 192
WIRE -1120 400 -1120 384
WIRE -960 400 -1120 400
WIRE -448 400 -448 384
WIRE -448 400 -512 400
WIRE -1120 416 -1120 400
WIRE -448 416 -448 400
WIRE -1888 496 -2016 496
WIRE -1776 496 -1888 496
WIRE -1696 496 -1776 496
WIRE -1648 496 -1696 496
WIRE -1632 496 -1648 496
WIRE -1536 496 -1552 496
WIRE -1488 496 -1536 496
WIRE -1344 496 -1344 320
WIRE -1344 496 -1408 496
WIRE -1120 496 -1120 480
WIRE -1120 496 -1344 496
WIRE -960 496 -1120 496
WIRE -448 496 -448 480
WIRE -448 496 -512 496
WIRE -192 496 -192 320
WIRE -192 496 -448 496
WIRE -144 496 -192 496
WIRE -16 496 -64 496
WIRE 0 496 -16 496
WIRE 96 496 80 496
WIRE 144 496 96 496
WIRE 208 496 144 496
WIRE 320 496 208 496
WIRE 448 496 320 496
WIRE -2016 512 -2016 496
WIRE -1888 512 -1888 496
WIRE -1776 512 -1776 496
WIRE -1344 512 -1344 496
WIRE -192 512 -192 496
WIRE 208 512 208 496
WIRE 320 512 320 496
WIRE 448 512 448 496
WIRE -960 592 -1296 592
WIRE -240 592 -512 592
WIRE -2016 608 -2016 592
WIRE -1888 608 -1888 576
WIRE -1776 608 -1776 576
WIRE 208 608 208 576
WIRE 320 608 320 576
WIRE 448 608 448 592
WIRE -1344 624 -1344 608
WIRE -192 624 -192 608
WIRE -1536 688 -1536 496
WIRE -1168 688 -1536 688
WIRE -1008 688 -1088 688
WIRE -960 688 -1008 688
WIRE -480 688 -512 688
WIRE -384 688 -480 688
WIRE -16 688 -16 496
WIRE -16 688 -304 688
WIRE -1008 704 -1008 688
WIRE -480 704 -480 688
WIRE -1648 784 -1648 496
WIRE -1168 784 -1648 784
WIRE -1008 784 -1008 768
WIRE -1008 784 -1088 784
WIRE -960 784 -1008 784
WIRE -480 784 -480 768
WIRE -480 784 -512 784
WIRE -384 784 -480 784
WIRE 96 784 96 496
WIRE 96 784 -304 784
WIRE -1696 880 -1696 496
WIRE -1632 880 -1696 880
WIRE -1504 880 -1552 880
WIRE -960 880 -1504 880
WIRE -32 880 -512 880
WIRE 16 880 -32 880
WIRE 144 880 144 496
WIRE 144 880 96 880
WIRE -1696 976 -1696 880
WIRE -1632 976 -1696 976
WIRE -1504 976 -1504 880
WIRE -1504 976 -1568 976
WIRE -1280 976 -1328 976
WIRE -1152 976 -1200 976
WIRE -960 976 -1152 976
WIRE -368 976 -512 976
WIRE -304 976 -368 976
WIRE -176 976 -224 976
WIRE -32 976 -32 880
WIRE 32 976 -32 976
WIRE 144 976 144 880
WIRE 144 976 96 976
WIRE -1504 992 -1504 976
WIRE -1328 992 -1328 976
WIRE -1152 992 -1152 976
WIRE -368 992 -368 976
WIRE -176 992 -176 976
WIRE -32 1008 -32 976
WIRE -1328 1072 -1328 1056
WIRE -1152 1072 -1152 1056
WIRE -1040 1072 -1056 1072
WIRE -960 1072 -976 1072
WIRE -496 1072 -512 1072
WIRE -416 1072 -432 1072
WIRE -368 1072 -368 1056
WIRE -176 1072 -176 1056
WIRE -1504 1088 -1504 1072
WIRE -32 1104 -32 1088
WIRE -496 1264 -512 1264
WIRE -400 1264 -416 1264
WIRE -880 1360 -880 1344
WIRE -736 1360 -736 1344
WIRE -592 1360 -592 1344
FLAG -1552 288 0
FLAG -1440 288 0
FLAG -1344 624 0
FLAG -1776 608 0
FLAG -1888 608 0
FLAG -2016 496 OUT1
FLAG -1504 1088 0
FLAG -1328 1072 0
FLAG -1056 1072 0
FLAG -880 1360 0
FLAG -736 1360 0
FLAG -592 1360 0
FLAG -400 1264 0
FLAG -416 1072 0
FLAG -192 624 0
FLAG 208 608 0
FLAG 320 608 0
FLAG 448 496 OUT2
FLAG -32 1104 0
FLAG -176 1072 0
FLAG -2016 608 0
FLAG 448 608 0
FLAG -1152 1072 0
FLAG -368 1072 0
FLAG -1552 176 IN
SYMBOL voltage -1552 176 R0
SYMATTR InstName V1
SYMATTR Value 12
SYMBOL cap -1456 192 R0
WINDOW 3 38 33 Left 2
WINDOW 123 24 56 Left 2
SYMATTR Value 10µ
SYMATTR Value2 x2
SYMATTR InstName C1
SYMATTR SpiceLine Rser=5m
SYMBOL nmos -1296 224 M0
WINDOW 0 0 22 Right 2
WINDOW 3 1 57 Right 2
SYMATTR InstName Q1
SYMATTR Value RJK0305DPB
SYMBOL nmos -1296 512 M0
WINDOW 0 -1 23 Right 2
WINDOW 3 0 61 Right 2
SYMATTR InstName Q2
SYMATTR Value RJK0301DPB
SYMBOL schottky -1136 320 R0
SYMATTR InstName D1
SYMATTR Value CMDSH2-3
SYMATTR Description Diode
SYMATTR Type diode
SYMBOL cap -1136 416 R0
SYMATTR InstName C2
SYMATTR Value .1µ
SYMBOL ind -1392 512 M270
WINDOW 0 32 56 VTop 2
WINDOW 3 5 56 VBottom 2
SYMATTR InstName L1
SYMATTR Value 2.4µ
SYMATTR SpiceLine Rser=9.8m
SYMBOL res -1536 480 R90
WINDOW 0 0 56 VBottom 2
WINDOW 3 32 56 VTop 2
SYMATTR InstName R1
SYMATTR Value 6m
SYMBOL cap -1792 512 R0
SYMATTR InstName C3
SYMATTR Value 22µ
SYMATTR SpiceLine Rser=2m
SYMBOL polcap -1904 512 R0
WINDOW 40 24 82 Left 2
SYMATTR InstName C4
SYMATTR Value 220µ
SYMATTR SpiceLine Rser=9m
SYMBOL res -1184 704 R270
WINDOW 0 32 56 VTop 2
WINDOW 3 0 56 VBottom 2
SYMATTR InstName R2
SYMATTR Value 10
SYMBOL res -1184 800 R270
WINDOW 0 32 56 VTop 2
WINDOW 3 0 56 VBottom 2
SYMATTR InstName R3
SYMATTR Value 10
SYMBOL cap -1024 704 R0
SYMATTR InstName C5
SYMATTR Value 1n
SYMBOL res -1648 896 R270
WINDOW 0 32 56 VTop 2
WINDOW 3 0 56 VBottom 2
SYMATTR InstName R4
SYMATTR Value 90.9K
SYMBOL res -1520 976 R0
SYMATTR InstName R5
SYMATTR Value 20K
SYMBOL cap -1632 992 R270
WINDOW 0 32 32 VTop 2
WINDOW 3 0 32 VBottom 2
SYMATTR InstName C6
SYMATTR Value 22p
SYMBOL cap -1344 992 R0
SYMATTR InstName C7
SYMATTR Value 2.2n
SYMBOL res -1184 960 R90
WINDOW 0 0 56 VBottom 2
WINDOW 3 32 56 VTop 2
SYMATTR InstName R6
SYMATTR Value 10K
SYMBOL cap -1168 992 R0
SYMATTR InstName C8
SYMATTR Value 220p
SYMBOL cap -976 1056 R90
WINDOW 0 0 32 VBottom 2
WINDOW 3 32 32 VTop 2
SYMATTR InstName C9
SYMATTR Value 1n
SYMBOL res -512 1280 R270
WINDOW 0 32 56 VTop 2
WINDOW 3 0 56 VBottom 2
SYMATTR InstName R7
SYMATTR Value 100K
SYMBOL cap -496 1088 R270
WINDOW 0 32 32 VTop 2
WINDOW 3 0 32 VBottom 2
SYMATTR InstName C10
SYMATTR Value 1n
SYMBOL LTC3869-2 -736 784 R0
SYMATTR InstName U1
SYMBOL nmos -240 224 R0
WINDOW 0 58 22 Left 2
WINDOW 3 58 57 Left 2
SYMATTR InstName Q3
SYMATTR Value RJK0305DPB
SYMBOL nmos -240 512 R0
WINDOW 0 -1 29 Right 2
WINDOW 3 -3 61 Right 2
SYMATTR InstName Q4
SYMATTR Value RJK0301DPB
SYMBOL schottky -464 320 R0
SYMATTR InstName D2
SYMATTR Value CMDSH2-3
SYMATTR Description Diode
SYMATTR Type diode
SYMBOL cap -464 416 R0
SYMATTR InstName C11
SYMATTR Value .1µ
SYMBOL ind -160 512 R270
WINDOW 0 32 56 VTop 2
WINDOW 3 5 56 VBottom 2
SYMATTR InstName L2
SYMATTR Value 2.4µ
SYMATTR SpiceLine Rser=9.8m
SYMBOL res -16 512 R270
WINDOW 0 32 56 VTop 2
WINDOW 3 0 56 VBottom 2
SYMATTR InstName R8
SYMATTR Value 6m
SYMBOL cap 192 512 R0
SYMATTR InstName C12
SYMATTR Value 22µ
SYMATTR SpiceLine Rser=2m
SYMBOL polcap 304 512 R0
WINDOW 40 24 82 Left 2
SYMATTR InstName C13
SYMATTR Value 220µ
SYMATTR SpiceLine Rser=9m
SYMBOL res -288 672 R90
WINDOW 0 0 56 VBottom 2
WINDOW 3 32 56 VTop 2
SYMATTR InstName R9
SYMATTR Value 10
SYMBOL res -288 768 R90
WINDOW 0 0 56 VBottom 2
WINDOW 3 32 56 VTop 2
SYMATTR InstName R10
SYMATTR Value 10
SYMBOL cap -496 704 R0
SYMATTR InstName C14
SYMATTR Value 1n
SYMBOL res 112 864 R90
WINDOW 0 0 56 VBottom 2
WINDOW 3 32 56 VTop 2
SYMATTR InstName R11
SYMATTR Value 63.4K
SYMBOL cap 96 960 R90
WINDOW 0 0 32 VBottom 2
WINDOW 3 32 32 VTop 2
SYMATTR InstName C15
SYMATTR Value 22p
SYMBOL res -48 992 R0
SYMATTR InstName R12
SYMATTR Value 20K
SYMBOL cap -192 992 R0
SYMATTR InstName C16
SYMATTR Value 2.2n
SYMBOL res -320 992 R270
WINDOW 0 32 56 VTop 2
WINDOW 3 0 56 VBottom 2
SYMATTR InstName R13
SYMATTR Value 8.2K
SYMBOL cap -384 992 R0
SYMATTR InstName C17
SYMATTR Value 330p
SYMBOL res -2032 496 R0
SYMATTR InstName Rload1
SYMATTR Value 0.66
SYMBOL res 432 496 R0
SYMATTR InstName Rload2
SYMATTR Value 0.5
TEXT -2016 464 Bottom 2 ;3.3V, MAX 5A
TEXT 440 464 Bottom 2 ;2.5V, MAX 5A
TEXT -768 160 Bottom 2 ;LTC3869-2 - Dual, 2-Phase Synchronous Step-Down DC/DC Controller\nHigh Efficiency Dual 3.3V/2.5V Buck Converter using Rsense Current Sensing\nInput: 4.5V-26V     Outputs: 3.3V @ 5A and 2.5V @ 5A, Fsw = 400kHz
TEXT -1360 1384 Left 2 ;Notes:\n  A 100 Ohm & 1nF Rsense filter may be required to counter effects of Rsense ESL. Refer to the datasheet for details.\n  If the simulation model is not found please update with the "Sync Release" command from the "Tools" menu.\n  It remains the customer's responsibility to verify proper and reliable operation in the actual application.\n  Component substitution and printed circuit board layout may significantly affect circuit performance or reliability.\n  Contact your local sales representative for assistance. This circuit is distributed to customers only for use with LTC parts.\n  Copyright © 2014 Linear Technology Inc. All rights reserved.
TEXT -256 1304 Left 2 !.tran .7m startup
