Version 4
SHEET 1 2404 1316
WIRE 32 -480 16 -480
WIRE 128 -480 112 -480
WIRE 144 -480 128 -480
WIRE 272 -480 224 -480
WIRE -512 -416 -592 -416
WIRE 224 -416 -512 -416
WIRE 928 -416 224 -416
WIRE 272 -400 272 -480
WIRE 272 -400 -320 -400
WIRE 320 -400 320 -432
WIRE 320 -400 272 -400
WIRE 752 -400 320 -400
WIRE -592 -384 -592 -416
WIRE -512 -384 -512 -416
WIRE -320 -384 -320 -400
WIRE 752 -384 752 -400
WIRE 928 -384 928 -416
WIRE 32 -368 32 -384
WIRE 128 -368 128 -480
WIRE 224 -368 224 -416
WIRE 320 -368 320 -400
WIRE -192 -304 -464 -304
WIRE 880 -304 720 -304
WIRE -592 -288 -592 -304
WIRE -320 -208 -320 -320
WIRE -192 -208 -320 -208
WIRE 752 -208 752 -320
WIRE 752 -208 720 -208
WIRE -320 -192 -320 -208
WIRE 752 -192 752 -208
WIRE -976 -112 -1088 -112
WIRE -880 -112 -976 -112
WIRE -816 -112 -880 -112
WIRE -768 -112 -816 -112
WIRE -672 -112 -688 -112
WIRE -608 -112 -672 -112
WIRE -512 -112 -512 -288
WIRE -512 -112 -608 -112
WIRE -320 -112 -320 -128
WIRE -320 -112 -512 -112
WIRE -192 -112 -320 -112
WIRE 752 -112 752 -128
WIRE 752 -112 720 -112
WIRE 928 -112 928 -288
WIRE 928 -112 752 -112
WIRE 1152 -112 928 -112
WIRE 1232 -112 1152 -112
WIRE 1248 -112 1232 -112
WIRE 1344 -112 1328 -112
WIRE 1392 -112 1344 -112
WIRE 1456 -112 1392 -112
WIRE 1552 -112 1456 -112
WIRE 1680 -112 1552 -112
WIRE -1088 -96 -1088 -112
WIRE -976 -96 -976 -112
WIRE -512 -96 -512 -112
WIRE 928 -96 928 -112
WIRE 1456 -96 1456 -112
WIRE 1552 -96 1552 -112
WIRE 1680 -96 1680 -112
WIRE -608 -64 -608 -112
WIRE 1152 -48 1152 -112
WIRE -192 -16 -464 -16
WIRE 880 -16 720 -16
WIRE -1088 0 -1088 -32
WIRE -976 0 -976 -32
WIRE 1456 0 1456 -32
WIRE 1552 0 1552 -32
WIRE 1680 0 1680 -16
WIRE -512 32 -512 0
WIRE 928 32 928 0
WIRE -672 80 -672 -112
WIRE -608 80 -608 16
WIRE -304 80 -608 80
WIRE -192 80 -304 80
WIRE 800 80 720 80
WIRE 1152 80 1152 32
WIRE 1152 80 800 80
WIRE 1232 80 1232 -112
WIRE -304 96 -304 80
WIRE 800 96 800 80
WIRE -816 176 -816 -112
WIRE -304 176 -304 160
WIRE -304 176 -816 176
WIRE -192 176 -304 176
WIRE 800 176 800 160
WIRE 800 176 720 176
WIRE 1344 176 1344 -112
WIRE 1344 176 800 176
WIRE -304 192 -304 176
WIRE 800 192 800 176
WIRE -816 256 -816 176
WIRE -672 272 -672 160
WIRE -304 272 -304 256
WIRE -304 272 -672 272
WIRE -192 272 -304 272
WIRE 800 272 800 256
WIRE 800 272 720 272
WIRE 1232 272 1232 160
WIRE 1232 272 800 272
WIRE -816 368 -816 336
WIRE -512 368 -816 368
WIRE -192 368 -512 368
WIRE 1152 368 720 368
WIRE -816 384 -816 368
WIRE -192 464 -208 464
WIRE 736 464 720 464
WIRE -816 480 -816 464
WIRE -192 560 -368 560
WIRE 784 560 720 560
WIRE 848 560 784 560
WIRE 928 560 912 560
WIRE -304 656 -320 656
WIRE -224 656 -240 656
WIRE -192 656 -224 656
WIRE 752 656 720 656
WIRE 80 832 80 816
WIRE 272 832 272 816
WIRE 80 928 80 912
WIRE -224 960 -224 656
WIRE 752 960 752 656
WIRE 752 960 -224 960
WIRE -368 992 -368 560
WIRE 784 992 784 560
WIRE 784 992 -368 992
WIRE -512 1024 -512 368
WIRE 1152 1024 1152 368
WIRE 1152 1024 -512 1024
WIRE -880 1056 -880 -112
WIRE 1392 1056 1392 -112
WIRE 1392 1056 -880 1056
FLAG 272 832 0
FLAG -592 -288 0
FLAG 320 -496 0
FLAG -512 32 0
FLAG -208 464 0
FLAG -816 480 0
FLAG 928 560 0
FLAG -320 656 0
FLAG 928 32 0
FLAG 736 464 0
FLAG 80 928 0
FLAG -976 0 0
FLAG 1680 -112 OUT
FLAG -592 -416 IN
FLAG 16 -480 0
FLAG -1088 0 0
FLAG 1552 0 0
FLAG 1456 0 0
FLAG 1680 0 0
FLAG 32 -384 0
SYMBOL LTC3875 272 224 R0
SYMATTR InstName U1
SYMBOL voltage -592 -400 R0
SYMATTR InstName V1
SYMATTR Value 12
SYMBOL cap 304 -496 R0
SYMATTR InstName C1
SYMATTR Value 4.7µ
SYMBOL nmos -464 -384 M0
WINDOW 0 38 -5 Right 2
WINDOW 3 33 106 Right 2
SYMATTR InstName Q1
SYMATTR Value BSC050NE2LS
SYMBOL nmos -464 -96 M0
WINDOW 0 -2 20 Right 2
WINDOW 3 36 109 Right 2
SYMATTR InstName Q2
SYMATTR Value BSC010NE2LSI
SYMBOL ind -672 -96 M270
WINDOW 0 32 56 VTop 2
WINDOW 3 5 56 VBottom 2
SYMATTR InstName L1
SYMATTR Value .25µ
SYMATTR SpiceLine Rser=.32m
SYMBOL cap -336 -192 R0
SYMATTR InstName C2
SYMATTR Value .1µ
SYMBOL schottky -336 -384 R0
SYMATTR InstName D1
SYMATTR Value CMDSH2-3
SYMATTR Description Diode
SYMATTR Type diode
SYMBOL cap -320 96 R0
SYMATTR InstName C3
SYMATTR Value 220n
SYMBOL cap -320 192 R0
SYMATTR InstName C4
SYMATTR Value 220n
SYMBOL res -624 -80 R0
SYMATTR InstName R1
SYMATTR Value 715
SYMBOL res -688 64 R0
SYMATTR InstName R2
SYMATTR Value 3.57K
SYMBOL res -832 240 R0
SYMATTR InstName R3
SYMATTR Value 13.3K
SYMBOL res -832 368 R0
SYMATTR InstName R4
SYMATTR Value 20K
SYMBOL cap 848 544 M90
WINDOW 0 0 32 VBottom 2
WINDOW 3 32 32 VTop 2
WINDOW 39 64 120 VTop 2
SYMATTR InstName C5
SYMATTR Value 1500p
SYMATTR SpiceLine Rser=5K Cpar=150p
SYMBOL cap -240 640 R90
WINDOW 0 0 32 VBottom 2
WINDOW 3 32 32 VTop 2
SYMATTR InstName C6
SYMATTR Value .001µ
SYMBOL nmos 880 -384 R0
WINDOW 0 52 10 Left 2
WINDOW 3 53 114 Left 2
SYMATTR InstName Q3
SYMATTR Value BSC050NE2LS
SYMBOL nmos 880 -96 R0
WINDOW 0 59 16 Left 2
WINDOW 3 60 103 Left 2
SYMATTR InstName Q4
SYMATTR Value BSC010NE2LSI
SYMBOL ind 1232 -96 R270
WINDOW 0 32 56 VTop 2
WINDOW 3 5 56 VBottom 2
SYMATTR InstName L2
SYMATTR Value .25µ
SYMATTR SpiceLine Rser=.32m
SYMBOL cap 736 -192 R0
SYMATTR InstName C7
SYMATTR Value .1µ
SYMBOL schottky 736 -384 R0
SYMATTR InstName D2
SYMATTR Value CMDSH2-3
SYMATTR Description Diode
SYMATTR Type diode
SYMBOL cap 784 96 R0
SYMATTR InstName C8
SYMATTR Value 220n
SYMBOL cap 784 192 R0
SYMATTR InstName C9
SYMATTR Value 220n
SYMBOL res 1136 -64 R0
SYMATTR InstName R5
SYMATTR Value 715
SYMBOL res 1216 64 R0
SYMATTR InstName R6
SYMATTR Value 3.57K
SYMBOL res 64 816 R0
SYMATTR InstName R7
SYMATTR Value 100K
SYMBOL polcap -992 -96 R0
WINDOW 3 37 39 Left 2
WINDOW 123 29 68 Left 2
SYMATTR Value 330µ
SYMATTR Value2 x4
SYMATTR InstName C10
SYMATTR Description Capacitor
SYMATTR Type cap
SYMATTR SpiceLine V=2.5 Irms=6.5 Rser=0.009 Lser=0
SYMBOL res 240 -496 R90
WINDOW 0 0 56 VBottom 2
WINDOW 3 32 56 VTop 2
SYMATTR InstName R8
SYMATTR Value 3K
SYMBOL res 128 -496 R90
WINDOW 0 0 56 VBottom 2
WINDOW 3 32 56 VTop 2
SYMATTR InstName R9
SYMATTR Value 1K
SYMBOL cap -1104 -96 R0
WINDOW 3 38 43 Left 2
WINDOW 123 38 82 Left 2
SYMATTR Value 100µ
SYMATTR Value2 x3
SYMATTR InstName C11
SYMATTR SpiceLine Rser=2m
SYMBOL cap 1536 -96 R0
WINDOW 3 38 43 Left 2
WINDOW 123 38 82 Left 2
SYMATTR Value 100µ
SYMATTR Value2 x3
SYMATTR InstName C12
SYMATTR SpiceLine Rser=2m
SYMBOL polcap 1440 -96 R0
WINDOW 3 37 39 Left 2
WINDOW 123 29 68 Left 2
SYMATTR Value 330µ
SYMATTR Value2 x4
SYMATTR InstName C13
SYMATTR Description Capacitor
SYMATTR Type cap
SYMATTR SpiceLine V=2.5 Irms=6.5 Rser=0.009 Lser=0
SYMBOL current 1680 -96 R0
WINDOW 123 24 110 Left 2
WINDOW 39 40 39 Left 2
SYMATTR SpiceLine load
SYMATTR Value PULSE(40 70 .5m 5u 5u .1m)
SYMATTR InstName Load
TEXT 1696 648 Left 2 !.tran 750u startup
TEXT 232 -536 Bottom 2 ;LTC3875 - Dual, 2-Phase, Synchronous Controller with Low Value DCR Sensing and Temperature Compensation\nDual Phase 1.0V, 60A Power System with Ultralow DCR Sensing\nInput: 4.5V to 14V     Outputs: 1V @ 60A, Fswitch = 400kHz
TEXT -480 1080 Left 2 ;Note:\n  Small value are used for TRACK/SS capacitors to reduce simulation time. The typical value for actual applications will vary from 10nF to 100nF.\n  More output capacitors may be needed to meet load step and output voltage requirements.\n  If the simulation model is not found please update with the "Sync Release" command from the "Tools" menu.\n  It remains the customer's responsibility to verify proper and reliable operation in the actual application.\n  Component substitution and printed circuit board layout may significantly affect circuit performance or reliability\n  Contact your local sales representative for assistance. This circuit is distributed to customers only for use with LTC parts\n  Copyright © 2011 Linear Technology Inc. All rights reserved.
