Version 4
SHEET 1 3356 2156
WIRE 2752 960 2752 944
WIRE 1792 1120 1680 1120
WIRE 2064 1120 1792 1120
WIRE 2144 1120 2064 1120
WIRE 2224 1120 2144 1120
WIRE 1680 1136 1680 1120
WIRE 1792 1152 1792 1120
WIRE 2064 1216 2064 1120
WIRE 2144 1216 2144 1120
WIRE 2224 1216 2224 1120
WIRE 1680 1232 1680 1216
WIRE 1792 1232 1792 1216
WIRE 1648 1280 1520 1280
WIRE 1760 1280 1648 1280
WIRE 1872 1280 1760 1280
WIRE 1904 1280 1872 1280
WIRE 2000 1280 1984 1280
WIRE 2304 1280 2288 1280
WIRE 2416 1280 2384 1280
WIRE 2496 1280 2416 1280
WIRE 2608 1280 2496 1280
WIRE 2736 1280 2608 1280
WIRE 1760 1296 1760 1280
WIRE 2496 1296 2496 1280
WIRE 2736 1296 2736 1280
WIRE 1520 1312 1520 1280
WIRE 2416 1312 2416 1280
WIRE 2608 1312 2608 1280
WIRE 1648 1328 1648 1280
WIRE 1872 1328 1872 1280
WIRE 2736 1392 2736 1376
WIRE 2608 1408 2608 1376
WIRE 1520 1424 1520 1392
WIRE 1648 1424 1648 1392
WIRE 1760 1424 1760 1376
WIRE 1872 1424 1872 1392
WIRE 1872 1424 1760 1424
WIRE 2000 1424 1872 1424
WIRE 2416 1424 2416 1376
WIRE 2416 1424 2288 1424
WIRE 2496 1424 2496 1376
WIRE 2496 1424 2416 1424
WIRE 1760 1440 1760 1424
WIRE 2496 1440 2496 1424
WIRE 2144 1488 2144 1472
WIRE 1760 1536 1760 1520
WIRE 2496 1536 2496 1520
FLAG 2144 1488 0
FLAG 1680 1232 0
FLAG 2736 1392 0
FLAG 2608 1408 0
FLAG 1680 1120 IN
FLAG 2496 1536 0
FLAG 1760 1536 0
FLAG 1648 1424 0
FLAG 2736 1280 OUT1
FLAG 1520 1280 OUT2
FLAG 1520 1424 0
FLAG 1792 1232 0
SYMBOL ind 2288 1296 R270
WINDOW 0 32 56 VTop 0
WINDOW 3 5 56 VBottom 0
SYMATTR InstName L1
SYMATTR Value 4.7µ
SYMATTR SpiceLine Rser=.0042
SYMBOL RES 2480 1280 R0
SYMATTR InstName R1
SYMATTR Value 150K
SYMBOL VOLTAGE 1680 1120 R0
WINDOW 123 0 0 Left 0
SYMATTR SpiceLine Rser=0.01
SYMATTR InstName V1
SYMATTR Value 5
SYMBOL cap 2592 1312 R0
SYMATTR InstName C1
SYMATTR Value 4.7µ
SYMATTR SpiceLine V=10 Irms=8.919 Rser=0.005 MTBF=0 Lser=0 mfg="KEMET" pn="C1210C106K8PAC" type="X5R" ppPkg=1
SYMBOL res 2480 1424 R0
WINDOW 0 35 46 Left 0
SYMATTR InstName R2
SYMATTR Value 75K
SYMBOL current 2736 1296 R0
WINDOW 123 0 0 Left 0
WINDOW 39 24 83 Left 0
WINDOW 3 37 41 Left 0
SYMATTR SpiceLine load
SYMATTR Value 300m
SYMATTR InstName I1
SYMBOL cap 2400 1312 R0
SYMATTR InstName C2
SYMATTR Value 10p
SYMBOL ind 2000 1296 M270
WINDOW 0 32 56 VTop 0
WINDOW 3 5 56 VBottom 0
SYMATTR InstName L2
SYMATTR Value 4.7µ
SYMATTR SpiceLine Rser=.0042
SYMBOL cap 1856 1328 R0
WINDOW 0 33 8 Left 0
WINDOW 3 30 56 Left 0
SYMATTR InstName C3
SYMATTR Value 10p
SYMBOL res 1744 1424 R0
SYMATTR InstName R3
SYMATTR Value 105K
SYMBOL cap 1632 1328 R0
SYMATTR InstName C4
SYMATTR Value 4.7µ
SYMATTR SpiceLine V=10 Irms=8.919 Rser=0.005 MTBF=0 Lser=0 mfg="KEMET" pn="C1210C106K8PAC" type="X5R" ppPkg=1
SYMBOL current 1520 1312 R0
WINDOW 123 0 0 Left 0
WINDOW 39 23 85 Left 0
WINDOW 3 34 45 Left 0
SYMATTR SpiceLine load
SYMATTR Value 300m
SYMATTR InstName I2
SYMBOL RES 1744 1280 R0
WINDOW 3 26 87 Left 0
SYMATTR Value 475K
SYMATTR InstName R4
SYMBOL cap 1776 1152 R0
SYMATTR InstName C5
SYMATTR Value 4.7µ
SYMATTR SpiceLine V=10 Irms=8.919 Rser=0.005 MTBF=0 Lser=0 mfg="KEMET" pn="C1210C106K8PAC" type="X5R" ppPkg=1
SYMBOL PowerProducts\\LTC3547 2144 1344 R0
SYMATTR InstName U1
TEXT 2584 1480 Left 0 !.tran 1.2m startup
TEXT 1512 1552 Left 0 ;Note:\n  If the simulation model is not found please update with the "Sync Release" command from the "Tools" menu.\n  It remains the customer's responsibility to verify proper and reliable operation in the actual application.\n  Component substitution and printed circuit board layout may significantly affect circuit performance or reliability\n  Contact your local sales representative for assistance. This circuit is distributed to customers only for use with LTC parts\n  Copyright © 2006 Linear Technology Inc. All rights reserved.
TEXT 2136 1104 Bottom 0 ;LTC3547 - Dual Monolithic 300mA Synchronous Step-Down Regulator\nInput: 5V     Outputs: 1.8V@300mA  and 3.3V@300mA
