Version 4
SHEET 1 1720 1300
WIRE 224 32 112 32
WIRE 384 32 224 32
WIRE 928 32 384 32
WIRE 112 48 112 32
WIRE 224 48 224 32
WIRE 560 48 352 48
WIRE 672 48 560 48
WIRE 784 48 672 48
WIRE 1024 48 784 48
WIRE 1120 48 1024 48
WIRE 560 64 560 48
WIRE 672 64 672 48
WIRE 784 64 784 48
WIRE 1120 64 1120 48
WIRE 384 128 384 32
WIRE 480 128 384 128
WIRE 928 128 928 32
WIRE 928 128 864 128
WIRE 112 144 112 128
WIRE 224 144 224 112
WIRE 1120 144 1120 128
WIRE 384 224 384 128
WIRE 480 224 384 224
WIRE 928 224 928 128
WIRE 928 224 864 224
WIRE 384 240 384 224
WIRE 928 240 928 224
WIRE 480 320 384 320
WIRE 928 320 864 320
WIRE 480 416 176 416
WIRE 1200 416 864 416
WIRE 480 512 384 512
WIRE 928 512 864 512
WIRE 384 528 384 512
WIRE 928 528 928 512
WIRE 64 608 -64 608
WIRE 176 608 176 416
WIRE 176 608 64 608
WIRE 240 608 176 608
WIRE 384 608 384 592
WIRE 384 608 320 608
WIRE 480 608 384 608
WIRE 928 608 928 592
WIRE 928 608 864 608
WIRE 1056 608 928 608
WIRE 1200 608 1200 416
WIRE 1200 608 1136 608
WIRE 1344 608 1200 608
WIRE 1440 608 1344 608
WIRE -64 624 -64 608
WIRE 64 624 64 608
WIRE 176 624 176 608
WIRE 1200 624 1200 608
WIRE 1344 624 1344 608
WIRE 1440 624 1440 608
WIRE 480 704 176 704
WIRE 1200 704 864 704
WIRE -64 720 -64 704
WIRE 64 720 64 688
WIRE 176 720 176 704
WIRE 1200 720 1200 704
WIRE 1344 720 1344 688
WIRE 1440 720 1440 704
WIRE 352 800 352 48
WIRE 480 800 352 800
WIRE 1024 800 1024 48
WIRE 1024 800 864 800
WIRE 176 816 176 800
WIRE 1200 816 1200 800
WIRE 352 992 352 800
WIRE 480 992 352 992
WIRE 960 992 864 992
WIRE 1120 992 960 992
WIRE 960 1008 960 992
WIRE 1120 1008 1120 992
WIRE 592 1072 592 1056
WIRE 752 1072 752 1056
WIRE 960 1104 960 1072
WIRE 1120 1104 1120 1088
FLAG 112 144 0
FLAG 176 816 0
FLAG 592 1072 0
FLAG 752 1072 0
FLAG 960 1104 0
FLAG 64 720 0
FLAG -64 720 0
FLAG -64 608 OUT1
FLAG 1200 816 0
FLAG 1344 720 0
FLAG 1440 720 0
FLAG 1440 608 OUT2
FLAG 112 32 IN
FLAG 224 144 0
FLAG 1120 992 OUT3
FLAG 1120 144 0
FLAG 1120 1104 0
SYMBOL voltage 112 32 R0
SYMATTR InstName V1
SYMATTR Value 12
SYMBOL cap 1104 128 M180
WINDOW 0 24 64 Left 2
WINDOW 3 24 8 Left 2
SYMATTR InstName C4
SYMATTR Value 2.2µ
SYMBOL ind 336 624 M270
WINDOW 0 32 56 VTop 2
WINDOW 3 5 56 VBottom 2
SYMATTR InstName L1
SYMATTR Value .68µ
SYMBOL cap 368 528 R0
SYMATTR InstName C5
SYMATTR Value .1µ
SYMBOL res 160 608 R0
SYMATTR InstName R1
SYMATTR Value 20K
SYMBOL res 160 704 R0
SYMATTR InstName R3
SYMATTR Value 10K
SYMBOL cap 944 1008 R0
SYMATTR InstName C9
SYMATTR Value 1µ
SYMBOL cap 48 624 R0
WINDOW 0 24 6 Left 2
SYMATTR InstName C1
SYMATTR Value 47µ
SYMATTR SpiceLine V=6.3 Irms=0 Rser=0.002 Lser=0 mfg="TDK" pn="C4532X5ROJ47@M" type="X5R"
SYMBOL ind 1040 624 R270
WINDOW 0 32 56 VTop 2
WINDOW 3 5 56 VBottom 2
SYMATTR InstName L2
SYMATTR Value 1µ
SYMBOL cap 912 528 R0
SYMATTR InstName C6
SYMATTR Value .1µ
SYMBOL res 1184 608 R0
SYMATTR InstName R2
SYMATTR Value 45.3K
SYMBOL res 1184 704 R0
SYMATTR InstName R4
SYMATTR Value 10K
SYMBOL cap 1328 624 R0
SYMATTR InstName C2
SYMATTR Value 47µ
SYMATTR SpiceLine V=6.3 Irms=0 Rser=0.0008 Lser=0 mfg="TDK" pn="C3225X5ROJ226M" type="X5R"
SYMBOL cap 208 48 R0
WINDOW 40 33 64 Left 2
WINDOW 3 39 35 Left 2
SYMATTR SpiceLine2 x2
SYMATTR Value 47µ
SYMATTR InstName C3
SYMATTR SpiceLine V=6.3 Irms=0 Rser=0.002 Lser=0 mfg="TDK" pn="C4532X5ROJ47@M" type="X5R"
SYMBOL res -80 608 R0
SYMATTR InstName Rload1
SYMATTR Value .6
SYMBOL res 1424 608 R0
SYMATTR InstName Rload2
SYMATTR Value 1.1
SYMBOL res 1104 992 R0
SYMATTR InstName Rload3
SYMATTR Value 250
SYMBOL LTC3633A 672 560 R0
SYMATTR InstName U1
SYMBOL res 368 224 R0
SYMATTR InstName R5
SYMATTR Value 100K
SYMBOL res 912 224 R0
SYMATTR InstName R8
SYMATTR Value 100K
TEXT 1240 1096 Left 2 !.tran .5m startup
TEXT 72 1120 Left 2 ;Note:\n  If the simulation model is not found please update with the "Sync Release" command from the "Tools" menu.\n  It remains the customer's responsibility to verify proper and reliable operation in the actual application.\n  Component substitution and printed circuit board layout may significantly affect circuit performance or reliability\n  Contact your local sales representative for assistance. This circuit is distributed to customers only for use with LTC parts\n  Copyright © 2014 Linear Technology Inc. All rights reserved.
TEXT 688 0 Bottom 2 ;LTC3633A - Dual Channel 3A, 20V Monolithic Synchronous Step-Down Regulator\n1.8V/3.3V Buck Regulator with 2.5V LDO Output\nInput: 3.6V to 20V       Output: 1.8V @ 3A, 3.3V @ 3A & 2.5V @ 10mA    Fsw = 3MHz
