Version 4
SHEET 1 2312 1076
WIRE -352 -48 -592 -48
WIRE -256 -48 -352 -48
WIRE 64 -48 -256 -48
WIRE 576 -48 64 -48
WIRE 960 -48 576 -48
WIRE 1040 -48 960 -48
WIRE -592 -32 -592 -48
WIRE -352 -32 -352 -48
WIRE 912 -32 256 -32
WIRE 160 -16 -208 -16
WIRE 384 -16 160 -16
WIRE 576 -16 576 -48
WIRE 960 -16 960 -48
WIRE 1040 -16 1040 -48
WIRE 64 0 64 -48
WIRE 160 0 160 -16
WIRE 256 0 256 -32
WIRE -592 64 -592 48
WIRE -352 64 -352 32
WIRE -256 64 -256 -48
WIRE -160 64 -256 64
WIRE -32 64 -80 64
WIRE 528 64 352 64
WIRE 384 80 384 -16
WIRE 960 96 960 48
WIRE 1040 96 1040 48
WIRE 1040 96 960 96
WIRE 384 160 384 144
WIRE 384 160 352 160
WIRE 512 160 384 160
WIRE 576 160 576 80
WIRE -208 192 -208 -16
WIRE 576 256 576 160
WIRE 576 256 352 256
WIRE 640 256 576 256
WIRE 752 256 720 256
WIRE 768 256 752 256
WIRE 864 256 848 256
WIRE 912 256 912 -32
WIRE 912 256 864 256
WIRE 1024 256 912 256
WIRE 1120 256 1024 256
WIRE 1232 256 1232 208
WIRE 1232 256 1120 256
WIRE 576 272 576 256
WIRE 1232 272 1232 256
WIRE 1024 288 1024 256
WIRE 1120 288 1120 256
WIRE -208 352 -208 256
WIRE -144 352 -208 352
WIRE -32 352 -64 352
WIRE 528 352 352 352
WIRE 576 384 576 368
WIRE 960 384 960 96
WIRE 960 384 576 384
WIRE 1024 384 1024 352
WIRE 1024 384 960 384
WIRE 1120 384 1120 352
WIRE 1120 384 1024 384
WIRE 1232 384 1232 352
WIRE 1232 384 1120 384
WIRE 384 448 352 448
WIRE 752 448 752 256
WIRE 752 448 384 448
WIRE 384 464 384 448
WIRE 912 528 912 256
WIRE -208 544 -208 352
WIRE -128 544 -208 544
WIRE -32 544 -64 544
WIRE 384 544 384 528
WIRE 384 544 352 544
WIRE 864 544 864 256
WIRE 864 544 384 544
WIRE -160 640 -176 640
WIRE -48 640 -80 640
WIRE -32 640 -48 640
WIRE 912 640 912 608
WIRE 912 640 352 640
WIRE 912 672 912 640
WIRE -176 720 -176 640
WIRE -48 720 -48 640
WIRE -208 800 -208 544
WIRE -176 800 -176 784
WIRE -176 800 -208 800
WIRE -48 800 -48 784
WIRE -48 800 -176 800
WIRE 80 800 80 704
WIRE 80 800 -48 800
WIRE 240 800 240 704
WIRE 240 800 80 800
WIRE 912 800 912 752
WIRE 912 800 240 800
WIRE 1024 800 1024 384
WIRE 1024 800 912 800
FLAG -592 64 0
FLAG -592 -48 IN
FLAG 1232 208 0
FLAG 1232 384 OUT
FLAG -352 64 0
SYMBOL nmos 528 -16 R0
WINDOW 3 42 104 Right 2
WINDOW 0 1 27 Right 2
SYMATTR Value Si7850DP
SYMATTR InstName Q1
SYMBOL ind 624 272 R270
WINDOW 0 32 56 VTop 2
WINDOW 3 5 56 VBottom 2
SYMATTR InstName L1
SYMATTR Value 10µ
SYMATTR SpiceLine Rser=1.5m
SYMBOL res 896 512 R0
SYMATTR InstName R1
SYMATTR Value 511K
SYMBOL res 896 656 R0
SYMATTR InstName R2
SYMATTR Value 35.7K
SYMBOL cap 512 176 R270
WINDOW 0 32 32 VTop 2
WINDOW 3 0 32 VBottom 2
SYMATTR InstName C2
SYMATTR Value .1µ
SYMBOL cap -224 192 R0
SYMATTR InstName C3
SYMATTR Value 4.7µ
SYMBOL cap -64 528 R90
WINDOW 0 0 32 VBottom 2
WINDOW 3 32 32 VTop 2
SYMATTR InstName C5
SYMATTR Value .001µ
SYMBOL voltage -592 -48 R0
WINDOW 123 24 138 Left 2
WINDOW 39 24 117 Left 2
SYMATTR Value PWL(0 0 1m 24)
SYMATTR InstName V1
SYMBOL nmos 528 272 R0
WINDOW 3 63 74 Left 2
SYMATTR Value Si7850DP
SYMATTR InstName Q2
SYMBOL res 1216 256 R0
SYMATTR InstName Rload
SYMATTR Value 1.2
SYMBOL PowerProducts\\LTC3891 160 352 R0
SYMATTR InstName U1
SYMBOL res 752 272 R270
WINDOW 0 32 56 VTop 2
WINDOW 3 0 56 VBottom 2
SYMATTR InstName R4
SYMATTR Value 0.002
SYMBOL res -48 336 R90
WINDOW 0 0 56 VBottom 2
WINDOW 3 32 56 VTop 2
SYMATTR InstName R3
SYMATTR Value 30.1K
SYMBOL polcap 1104 288 R0
SYMATTR InstName C6
SYMATTR Value 150µ
SYMATTR SpiceLine Rser=5m
SYMBOL polcap -368 -32 R0
WINDOW 3 37 34 Left 2
WINDOW 123 27 61 Left 2
SYMATTR Value 4.7µ
SYMATTR Value2 x2
SYMATTR InstName C8
SYMATTR SpiceLine Rser=5m
SYMBOL res -64 624 R90
WINDOW 0 0 56 VBottom 2
WINDOW 3 32 38 VTop 2
SYMATTR InstName R6
SYMATTR Value 5.11K
SYMBOL cap -192 720 R0
SYMATTR InstName C4
SYMATTR Value 15n
SYMBOL cap -64 720 R0
SYMATTR InstName C7
SYMATTR Value 47p
SYMBOL cap 368 464 R0
SYMATTR InstName C11
SYMATTR Value 1n
SYMBOL schottky 368 80 R0
SYMATTR InstName D1
SYMATTR Value MBRS1100
SYMATTR Description Diode
SYMATTR Type diode
SYMBOL cap 1008 288 R0
SYMATTR InstName C1
SYMATTR Value 10µ
SYMBOL cap 944 -16 R0
SYMATTR InstName C9
SYMATTR Value 2.2µ
SYMBOL polcap 1024 -16 R0
SYMATTR InstName C12
SYMATTR Value 100µ
SYMATTR SpiceLine Rser=10m
SYMBOL res -176 80 R270
WINDOW 0 32 56 VTop 2
WINDOW 3 0 56 VBottom 2
SYMATTR InstName R5
SYMATTR Value 1Meg
TEXT 1048 784 Left 2 !.tran 1.5m startup
TEXT -272 832 Left 2 ;Note:\n  A smaller value Track/SS capacitor is used to reduce simulation time. Typical value should be  0.1uF.\n  If the simulation model is not found please update with the "Sync Release" command from the "Tools" menu.\n  It remains the customer's responsibility to verify proper and reliable operation in the actual application.\n  Component substitution and printed circuit board layout may significantly affect circuit performance or reliability.\n  Contact your local sales representative for assistance. This circuit is distributed to customers only for use with LTC parts.\n  Copyright © 2012 Linear Technology Inc. All rights reserved.
TEXT 304 -64 Bottom 2 ;LTC3891 - Low IQ, 60V Synchronous Step-Down Controller\nHigh Efficiency Positive to Negative  Converter\nInput: 12V to 36V           Output: -12V @ 10A
TEXT 1040 448 Left 2 ;L1: 7443631000 (Wurth)\nC8: 63HVH56M (SUN Electonics)\nC6: 16TSVPC150 (Sanyo)\nC9,C10: C4532X7R2A225K (TDK)\nC5: 0.1uF
TEXT 592 800 Bottom 3 ;-12 Negative Bus
