Version 4
SHEET 1 1304 864
WIRE -480 -48 -672 -48
WIRE -240 -48 -416 -48
WIRE 48 -48 -240 -48
WIRE 176 -48 48 -48
WIRE 272 -48 256 -48
WIRE -672 -16 -672 -48
WIRE -240 -16 -240 -48
WIRE 176 0 176 -48
WIRE 272 0 272 -48
WIRE 48 64 48 -48
WIRE 80 64 48 64
WIRE 448 64 368 64
WIRE 624 64 448 64
WIRE 736 64 624 64
WIRE 832 64 736 64
WIRE 448 80 448 64
WIRE 736 80 736 64
WIRE 832 80 832 64
WIRE -672 96 -672 64
WIRE -240 96 -240 48
WIRE 624 144 624 64
WIRE -32 160 -48 160
WIRE 48 160 32 160
WIRE 80 160 48 160
WIRE 448 160 448 144
WIRE 448 160 368 160
WIRE 736 176 736 144
WIRE 832 176 832 160
WIRE -240 192 -240 160
WIRE 48 256 48 160
WIRE 80 256 48 256
WIRE 624 256 624 224
WIRE 624 256 368 256
WIRE 624 272 624 256
WIRE -16 352 -32 352
WIRE 80 352 64 352
WIRE 400 352 368 352
WIRE 448 352 400 352
WIRE 544 352 528 352
WIRE 624 368 624 352
WIRE 400 384 400 352
WIRE 544 384 544 352
WIRE 176 432 176 416
WIRE 272 432 272 416
WIRE 400 464 400 448
WIRE 544 464 544 448
FLAG 176 432 0
FLAG 272 432 0
FLAG -48 160 0
FLAG -32 352 0
FLAG 544 464 0
FLAG 624 368 0
FLAG 736 176 0
FLAG 832 176 0
FLAG 832 64 OUT
FLAG -240 -48 IN
FLAG -240 192 0
FLAG 400 464 0
FLAG -672 96 0
SYMBOL PowerProducts\\LTC3122 224 208 R0
SYMATTR InstName U1
SYMBOL ind 160 -32 R270
WINDOW 0 32 56 VTop 2
WINDOW 3 5 56 VBottom 2
SYMATTR InstName L1
SYMATTR Value 3.3µ
SYMATTR SpiceLine Rser=10m
SYMBOL cap 32 144 R90
WINDOW 0 0 32 VBottom 2
WINDOW 3 32 32 VTop 2
SYMATTR InstName C1
SYMATTR Value 4.7µ
SYMBOL res 80 336 R90
WINDOW 0 0 56 VBottom 2
WINDOW 3 32 56 VTop 2
SYMATTR InstName R1
SYMATTR Value 57.6K
SYMBOL cap 528 384 R0
SYMATTR InstName C2
SYMATTR Value 1000p
SYMBOL cap 432 80 R0
SYMATTR InstName C3
SYMATTR Value .1µ
SYMBOL res 608 256 R0
SYMATTR InstName R2
SYMATTR Value 121K
SYMBOL res 608 128 R0
SYMATTR InstName R3
SYMATTR Value 383K
SYMBOL cap 720 80 R0
SYMATTR InstName C4
SYMATTR Value 100µ
SYMATTR SpiceLine V=25 Irms=0 Rser=0.003 Lser=0 mfg="TDK" pn="C575OX5RIE226M" type="X5R"
SYMBOL res 816 64 R0
SYMATTR InstName Rload
SYMATTR Value 12.5
SYMBOL cap -256 -16 R0
WINDOW 3 39 34 Left 2
WINDOW 39 25 60 Left 2
SYMATTR Value 5m
SYMATTR SpiceLine Rpar=221K
SYMATTR InstName C5
SYMATTR SpiceLine2 Rser=50m
SYMBOL cap -256 96 R0
WINDOW 3 39 32 Left 2
WINDOW 39 23 60 Left 2
SYMATTR Value 5m
SYMATTR SpiceLine Rpar=221K
SYMATTR InstName C6
SYMATTR SpiceLine2 Rser=50m
SYMBOL res 432 368 R270
WINDOW 0 32 56 VTop 2
WINDOW 3 0 56 VBottom 2
SYMATTR InstName R4
SYMATTR Value 43.2K
SYMBOL cap 384 384 R0
SYMATTR InstName C8
SYMATTR Value 68p
SYMBOL voltage -672 -32 R0
WINDOW 123 0 0 Left 2
WINDOW 39 0 0 Left 2
SYMATTR InstName V1
SYMATTR Value PWL(0 0 20u 4 11m 4 11.2m 0)
SYMBOL schottky -480 -32 R270
WINDOW 0 32 32 VTop 2
WINDOW 3 0 32 VBottom 2
SYMATTR InstName D1
SYMATTR Value MBR0520L
SYMATTR Description Diode
SYMATTR Type diode
TEXT 720 424 Left 2 !.tran 17m
TEXT 88 -96 Bottom 2 ;LTC3122 - 15V, 2.5A Synchronous Step-Up DC/DC Converter with Output Disconnect\nDual Supercapacitor Backup Power Supply\nInput: 0.5V to 5V (1.8V Startup)     Output: 5V @ 50mA to 2.5A
TEXT -584 456 Left 2 ;Note:\n  Output current depends on input voltage. Please see datasheet for details.\n  If the simulation model is not found please update with the "Sync Release" command from the "Tools" menu.\n  It remains the customer's responsibility to verify proper and reliable operation in the actual application.\n  Component substitution and printed circuit board layout may significantly affect circuit performance or reliability.\n  Contact your local sales representative for assistance. This circuit is distributed to customers only for use with LTC parts.\n  Copyright © 2013 Linear Technology Inc. All rights reserved.
