Version 4
SHEET 1 1204 808
WIRE -240 288 -240 224
WIRE -240 448 -240 368
WIRE -112 48 -112 32
WIRE -112 144 -112 128
WIRE -112 224 -240 224
WIRE -112 304 -112 224
WIRE -112 448 -112 368
WIRE -48 224 -112 224
WIRE -48 240 -48 224
WIRE -48 336 -48 304
WIRE 32 224 -48 224
WIRE 32 240 32 224
WIRE 32 336 -48 336
WIRE 32 336 32 320
WIRE 32 352 32 336
WIRE 32 448 32 432
WIRE 80 224 32 224
WIRE 144 32 -112 32
WIRE 144 128 144 32
WIRE 176 128 144 128
WIRE 176 224 160 224
WIRE 176 336 32 336
WIRE 240 32 144 32
WIRE 240 64 240 32
WIRE 320 32 240 32
WIRE 320 64 320 32
WIRE 320 448 320 384
WIRE 400 32 320 32
WIRE 400 64 400 32
WIRE 496 224 464 224
WIRE 608 224 576 224
WIRE 608 240 608 224
WIRE 608 336 464 336
WIRE 608 336 608 320
WIRE 608 352 608 336
WIRE 608 448 608 432
WIRE 720 224 608 224
WIRE 720 240 720 224
WIRE 720 336 608 336
WIRE 720 336 720 304
WIRE 800 224 720 224
WIRE 800 304 800 224
WIRE 800 448 800 368
WIRE 880 224 800 224
WIRE 880 288 880 224
WIRE 880 448 880 368
FLAG -112 144 0
FLAG 320 448 0
FLAG 800 448 0
FLAG 880 448 0
FLAG -112 32 IN
FLAG 880 224 OUT1
FLAG 608 448 0
FLAG -112 448 0
FLAG -240 448 0
FLAG -240 224 OUT2
FLAG 32 448 0
SYMBOL VOLTAGE -112 32 R0
WINDOW 123 0 0 Left 0
WINDOW 39 0 0 Left 0
SYMATTR InstName V1
SYMATTR Value 5
SYMBOL polcap 784 304 R0
SYMATTR InstName C1
SYMATTR Value 10µ
SYMATTR SpiceLine Rser=0.03
SYMBOL ind 480 240 R270
WINDOW 0 32 56 VTop 0
WINDOW 3 5 56 VBottom 0
SYMATTR InstName L1
SYMATTR Value 2.2µ
SYMATTR SpiceLine Rser=0.062
SYMBOL res 592 336 R0
SYMATTR InstName R1
SYMATTR Value 402K
SYMBOL res 592 224 R0
SYMATTR InstName R2
SYMATTR Value 604K
SYMBOL polcap -128 304 R0
SYMATTR InstName C2
SYMATTR Value 4.7µ
SYMATTR SpiceLine Rser=0.03
SYMBOL ind 176 240 M270
WINDOW 0 32 56 VTop 0
WINDOW 3 5 56 VBottom 0
SYMATTR InstName L2
SYMATTR Value 4.7µ
SYMATTR SpiceLine Rser=0.03
SYMBOL res 16 336 R0
SYMATTR InstName R3
SYMATTR Value 280K
SYMBOL res 16 224 R0
SYMATTR InstName R4
SYMATTR Value 887K
SYMBOL cap -64 240 R0
SYMATTR InstName C3
SYMATTR Value 68p
SYMBOL cap 704 240 R0
SYMATTR InstName C4
SYMATTR Value 33p
SYMBOL PowerProducts\\LTC3548 320 224 R0
SYMATTR InstName U1
SYMBOL res 864 272 R0
SYMATTR InstName Rload1
SYMATTR Value 10
SYMBOL res -256 272 R0
SYMATTR InstName Rload2
SYMATTR Value 25
TEXT 712 488 Left 0 !.tran .3m startup
TEXT 376 -40 Center 0 ;LTC3548 - Dual Synchronous, 400mA/800mA, 2.25MHz Step-Down DC/DC Regulator\nInput: 5V   Outputs: 1.5V and 2.5V, Component value selected based on DC822 Demo circuit
TEXT -256 504 Left 0 ;Note:\n  If the simulation model is not found please update with the "Sync Release" command from the "Tools" menu.\n  It remains the customer's responsibility to verify proper and reliable operation in the actual application.\n  Component substitution and printed circuit board layout may significantly affect circuit performance or reliability\n  Contact your local sales representative for assistance. This circuit is distributed to customers only for use with LTC parts\n  Copyright © 2006 Linear Technology Inc. All rights reserved.
