Version 4
SHEET 1 1100 1012
WIRE -992 192 -1088 192
WIRE -912 192 -992 192
WIRE -736 192 -912 192
WIRE -160 192 -736 192
WIRE 240 192 128 192
WIRE 352 192 240 192
WIRE 448 192 352 192
WIRE -1088 208 -1088 192
WIRE -992 208 -992 192
WIRE -736 208 -736 192
WIRE 352 208 352 192
WIRE 448 208 448 192
WIRE -912 272 -912 192
WIRE -880 272 -912 272
WIRE -576 272 -592 272
WIRE -464 272 -496 272
WIRE -416 272 -464 272
WIRE -320 272 -416 272
WIRE -192 272 -320 272
WIRE -160 272 -192 272
WIRE 240 272 128 272
WIRE -416 288 -416 272
WIRE -320 288 -320 272
WIRE 240 288 240 272
WIRE -1088 304 -1088 288
WIRE -992 304 -992 272
WIRE 352 304 352 272
WIRE 448 304 448 288
WIRE -192 352 -192 272
WIRE -160 352 -192 352
WIRE 144 352 128 352
WIRE -416 384 -416 352
WIRE -320 384 -320 368
WIRE 240 384 240 368
WIRE -464 432 -464 272
WIRE -464 432 -592 432
WIRE -736 512 -736 496
FLAG 144 352 0
FLAG 448 304 0
FLAG 352 304 0
FLAG 448 192 OUT2
FLAG -1088 304 0
FLAG -736 512 0
FLAG -416 384 0
FLAG -992 304 0
FLAG -320 272 OUT1
FLAG -1088 192 IN
FLAG -320 384 0
FLAG 240 384 0
SYMBOL cap 336 208 R0
SYMATTR InstName C1
SYMATTR Value 1µ
SYMBOL VOLTAGE -1088 192 R0
WINDOW 123 0 0 Left 0
WINDOW 39 0 0 Left 0
SYMATTR InstName V1
SYMATTR Value 4
SYMBOL ind -592 288 R270
WINDOW 0 32 56 VTop 0
WINDOW 3 5 56 VBottom 0
SYMATTR InstName L1
SYMATTR Value 2.2µ
SYMBOL cap -1008 208 R0
SYMATTR InstName C2
SYMATTR Value 4.7µ
SYMBOL cap -432 288 R0
SYMATTR InstName C3
SYMATTR Value 10µ
SYMBOL PowerProducts\\LTC3406-1.5 -736 352 R0
SYMATTR InstName U1
SYMBOL PowerProducts\\LTC3025 -16 272 R0
SYMATTR InstName U2
SYMBOL res 224 176 R0
SYMATTR InstName R1
SYMATTR Value 80.6K
SYMBOL res 224 272 R0
SYMATTR InstName R2
SYMATTR Value 40.2K
SYMBOL res -336 272 R0
SYMATTR InstName Rload1
SYMATTR Value 5
SYMBOL res 432 192 R0
SYMATTR InstName Rload2
SYMATTR Value 4
TEXT 176 440 Left 0 !.tran 1m startup
TEXT -320 136 Bottom 0 ;LTC3025 - 300mA µPower VLDO Linear Regulator\nLTC3406 - 1.5MHz, 600mA Synchronous Step-Down Regulator\nInput: 2.7V to 5.5V   Output 1: 1.5V @ 600mA     Output 2: 1.2V @ 300mA
TEXT -976 536 Left 0 ;Note:\n  If the simulation model is not found please update with the "Sync Release" command from the "Tools" menu.\n  It remains the customer's responsibility to verify proper and reliable operation in the actual application.\n  Component substitution and printed circuit board layout may significantly affect circuit performance or reliability\n  Contact your local sales representative for assistance. This circuit is distributed to customers only for use with LTC parts\n  Copyright © 2011 Linear Technology Inc. All rights reserved.
