Version 4
SHEET 1 3304 2452
WIRE 2048 1280 1424 1280
WIRE 2064 1280 2048 1280
WIRE 1600 1312 1488 1312
WIRE 1696 1312 1600 1312
WIRE 1872 1312 1696 1312
WIRE 1488 1328 1488 1312
WIRE 1600 1328 1600 1312
WIRE 1872 1328 1872 1312
WIRE 2048 1376 2048 1280
WIRE 2048 1376 2016 1376
WIRE 2048 1392 2048 1376
WIRE 1488 1424 1488 1408
WIRE 1600 1424 1600 1392
WIRE 1696 1488 1696 1312
WIRE 1728 1488 1696 1488
WIRE 2048 1488 2048 1456
WIRE 2048 1488 2016 1488
WIRE 2048 1504 2048 1488
WIRE 1632 1600 1616 1600
WIRE 1728 1600 1712 1600
WIRE 2048 1600 2048 1568
WIRE 2048 1600 2016 1600
WIRE 2128 1600 2048 1600
WIRE 2256 1600 2208 1600
WIRE 2336 1600 2256 1600
WIRE 2448 1600 2336 1600
WIRE 2544 1600 2448 1600
WIRE 2256 1616 2256 1600
WIRE 2336 1616 2336 1600
WIRE 2448 1616 2448 1600
WIRE 2544 1616 2544 1600
WIRE 1632 1712 1616 1712
WIRE 1728 1712 1696 1712
WIRE 2256 1712 2256 1680
WIRE 2256 1712 2016 1712
WIRE 2336 1712 2336 1696
WIRE 2336 1712 2256 1712
WIRE 2448 1712 2448 1680
WIRE 2544 1712 2544 1696
WIRE 2336 1728 2336 1712
WIRE 1424 1824 1424 1280
WIRE 1728 1824 1424 1824
WIRE 2032 1824 2016 1824
WIRE 2128 1824 2112 1824
WIRE 2208 1824 2192 1824
WIRE 2336 1824 2336 1808
WIRE 1824 1888 1824 1872
WIRE 1920 1888 1920 1872
FLAG 1920 1888 0
FLAG 1824 1888 0
FLAG 1488 1424 0
FLAG 1616 1600 0
FLAG 2544 1712 0
FLAG 2336 1824 0
FLAG 2448 1712 0
FLAG 2544 1600 OUT
FLAG 1600 1424 0
FLAG 2208 1824 0
FLAG 1488 1312 IN
FLAG 2128 1280 0
FLAG 1616 1712 0
SYMBOL ind 2112 1616 R270
WINDOW 0 32 56 VTop 0
WINDOW 3 5 56 VBottom 0
SYMATTR InstName L1
SYMATTR Value 3.3µ
SYMBOL RES 2320 1600 R0
WINDOW 3 34 76 Left 0
SYMATTR Value 47.5K
SYMATTR InstName R1
SYMBOL VOLTAGE 1488 1312 R0
WINDOW 3 27 94 Left 0
WINDOW 123 0 0 Left 0
WINDOW 39 24 44 Left 0
SYMATTR Value 12
SYMATTR InstName V1
SYMBOL res 2320 1712 R0
WINDOW 0 39 38 Left 0
SYMATTR InstName R2
SYMATTR Value 15K
SYMBOL res 1728 1584 R90
WINDOW 0 0 56 VBottom 0
WINDOW 3 32 56 VTop 0
SYMATTR InstName R3
SYMATTR Value 105K
SYMBOL res 2128 1808 R90
WINDOW 0 0 56 VBottom 0
WINDOW 3 32 56 VTop 0
SYMATTR InstName R4
SYMATTR Value 4.3K
SYMBOL cap 2432 1616 R0
SYMATTR InstName C1
SYMATTR Value 100µ
SYMBOL cap 1584 1328 R0
WINDOW 40 24 92 Left 0
SYMATTR InstName C2
SYMATTR Value 22µ
SYMBOL cap 2128 1840 R270
WINDOW 0 32 32 VTop 0
WINDOW 3 0 32 VBottom 0
SYMATTR InstName C3
SYMATTR Value 1000p
SYMBOL cap 2032 1504 R0
WINDOW 0 41 19 Left 0
WINDOW 3 44 53 Left 0
SYMATTR InstName C4
SYMATTR Value 0.22µ
SYMBOL schottky 2032 1392 R0
SYMATTR InstName D1
SYMATTR Value CMDSH2-3
SYMATTR Description Diode
SYMATTR Type diode
SYMBOL cap 2064 1296 R270
WINDOW 0 32 32 VTop 0
WINDOW 3 0 32 VBottom 0
SYMATTR InstName C5
SYMATTR Value 1µ
SYMATTR SpiceLine Rser=.0001
SYMBOL cap 1696 1696 R90
WINDOW 0 0 32 VBottom 0
WINDOW 3 32 32 VTop 0
SYMATTR InstName C6
SYMATTR Value 0.001µ
SYMBOL cap 2240 1616 R0
SYMATTR InstName C7
SYMATTR Value 10p
SYMBOL PowerProducts\\LTC3603 1872 1600 R0
SYMATTR InstName U1
SYMBOL RES 2528 1600 R0
WINDOW 3 34 76 Left 0
SYMATTR Value 1
SYMATTR InstName Rload
TEXT 2352 1880 Left 0 !.tran 1.25m startup
TEXT 2008 1232 Bottom 0 ;LTC3603 - 2.5A, 15V Monolithic Synchronous Step-down Regulator\nInput: 4V to 15V     Output: 1.8V @ 2.5A
TEXT 1424 1912 Left 0 ;Note:\n  If the simulation model is not found please update with the "Sync Release" command from the "Tools" menu.\n  It remains the customer's responsibility to verify proper and reliable operation in the actual application.\n  Component substitution and printed circuit board layout may significantly affect circuit performance or reliability\n  Contact your local sales representative for assistance. This circuit is distributed to customers only for use with LTC parts\n  Copyright © 2011 Linear Technology Inc. All rights reserved.
