Version 4
SHEET 1 1360 812
WIRE 480 -176 -192 -176
WIRE -288 -144 -384 -144
WIRE -160 -144 -288 -144
WIRE -32 -144 -160 -144
WIRE 208 -144 -32 -144
WIRE -384 -128 -384 -144
WIRE -32 -128 -32 -144
WIRE -288 -112 -288 -144
WIRE 208 -112 208 -144
WIRE -112 -48 -128 -48
WIRE -32 -48 -48 -48
WIRE 48 -48 -32 -48
WIRE 384 -48 368 -48
WIRE 480 -48 480 -176
WIRE 480 -48 464 -48
WIRE -384 -32 -384 -48
WIRE -288 -32 -288 -48
WIRE -160 48 -160 -144
WIRE 48 48 -160 48
WIRE 704 48 368 48
WIRE 48 144 32 144
WIRE 400 144 368 144
WIRE 400 160 400 144
WIRE -256 240 -272 240
WIRE -192 240 -192 -176
WIRE 48 240 -192 240
WIRE 400 240 400 224
WIRE 400 240 368 240
WIRE 464 240 400 240
WIRE 592 240 544 240
WIRE 704 240 704 48
WIRE 704 240 592 240
WIRE 800 240 704 240
WIRE 896 240 800 240
WIRE 1008 240 896 240
WIRE 592 256 592 240
WIRE 704 256 704 240
WIRE 800 256 800 240
WIRE 896 256 896 240
WIRE 1008 256 1008 240
WIRE -192 336 -192 240
WIRE 48 336 -192 336
WIRE 592 336 368 336
WIRE 704 336 704 320
WIRE 704 336 592 336
WIRE 592 352 592 336
WIRE 800 352 800 320
WIRE 896 352 896 320
WIRE 1008 352 1008 336
WIRE -128 432 -144 432
WIRE -48 432 -64 432
WIRE 48 432 32 432
WIRE 384 432 368 432
WIRE 480 432 464 432
WIRE 592 448 592 432
WIRE 160 512 160 496
WIRE 256 512 256 496
FLAG 160 512 0
FLAG 256 512 0
FLAG 32 144 0
FLAG -272 240 0
FLAG -384 -32 0
FLAG 800 352 0
FLAG 1008 352 0
FLAG -384 -144 IN
FLAG 1008 240 OUT
FLAG 592 448 0
FLAG -288 -32 0
FLAG 480 432 0
FLAG -144 432 0
FLAG -128 -48 0
FLAG 896 352 0
SYMBOL voltage -384 -144 R0
SYMATTR InstName V1
SYMATTR Value 24
SYMBOL cap -192 224 R90
WINDOW 0 0 32 VBottom 2
WINDOW 3 32 32 VTop 2
SYMATTR InstName C1
SYMATTR Value 4.7µ
SYMBOL ind 448 256 R270
WINDOW 0 32 56 VTop 2
WINDOW 3 5 56 VBottom 2
SYMATTR InstName L1
SYMATTR Value 4.7µ
SYMATTR SpiceLine Rser=32.7m
SYMBOL cap 784 256 R0
SYMATTR InstName C2
SYMATTR Value 10µ
SYMATTR SpiceLine Rser=5m
SYMBOL cap 384 160 R0
SYMATTR InstName C3
SYMATTR Value .1µ
SYMBOL res 576 240 R0
SYMATTR InstName R1
SYMATTR Value 619K
SYMBOL res 576 336 R0
SYMATTR InstName R2
SYMATTR Value 84.5K
SYMBOL res 480 -64 R90
WINDOW 0 0 56 VBottom 2
WINDOW 3 32 56 VTop 2
SYMATTR InstName R3
SYMATTR Value 100K
SYMBOL cap -304 -112 R0
WINDOW 3 38 35 Left 2
WINDOW 123 24 61 Left 2
SYMATTR InstName C4
SYMATTR Value 10µ
SYMATTR SpiceLine Rser=10m
SYMATTR Value2 x2
SYMBOL res 368 448 R270
WINDOW 0 32 56 VTop 2
WINDOW 3 0 56 VBottom 2
SYMATTR InstName R4
SYMATTR Value 60.4K
SYMBOL res 48 416 R90
WINDOW 0 0 56 VBottom 2
WINDOW 3 32 56 VTop 2
SYMATTR InstName R5
SYMATTR Value 200K
SYMBOL cap -64 416 R90
WINDOW 0 0 32 VBottom 2
WINDOW 3 32 32 VTop 2
SYMATTR InstName C5
SYMATTR Value 100p
SYMBOL res -48 -144 R0
SYMATTR InstName R6
SYMATTR Value 2
SYMBOL cap -48 -64 R90
WINDOW 0 0 32 VBottom 2
WINDOW 3 32 32 VTop 2
SYMATTR InstName C6
SYMATTR Value 2.2µ
SYMBOL cap 688 256 R0
SYMATTR InstName C7
SYMATTR Value 5.6p
SYMBOL cap 880 256 R0
SYMATTR InstName C8
SYMATTR Value 4.7µ
SYMBOL PowerProducts\\LTC3646-1 208 192 R0
SYMATTR InstName U1
SYMBOL res 992 240 R0
SYMATTR InstName Rload
SYMATTR Value 5
TEXT 768 448 Left 2 !.tran 500u startup
TEXT -384 528 Left 2 ;Note:\n  If the simulation model is not found please update with the "Sync Release" command from the "Tools" menu.\n  It remains the customer's responsibility to verify proper and reliable operation in the actual application.\n  Component substitution and printed circuit board layout may significantly affect circuit performance or reliability\n  Contact your local sales representative for assistance. This circuit is distributed to customers only for use with LTC parts\n  Copyright © 2013 Linear Technology Inc. All rights reserved.
TEXT 336 -200 Bottom 2 ;LTC3646-1 - 40V, 1A Synchronous Step-Down Converter\nHigh Efficiency Low Quiescent Current Step-Down Converter\nInput: 7V to 40V     Output: 5V @ 1A, Fsw = 2.25MHz
