Version 4
SHEET 1 1632 680
WIRE -144 -32 -240 -32
WIRE -48 -32 -144 -32
WIRE 32 -32 -48 -32
WIRE 176 -32 32 -32
WIRE -240 -16 -240 -32
WIRE -144 -16 -144 -32
WIRE 176 -16 176 -32
WIRE -48 16 -48 -32
WIRE 32 32 32 -32
WIRE 48 32 32 32
WIRE 320 32 304 32
WIRE 416 32 400 32
WIRE 528 32 416 32
WIRE 624 32 528 32
WIRE 800 32 624 32
WIRE 416 48 416 32
WIRE 528 48 528 32
WIRE 800 48 800 32
WIRE 624 64 624 32
WIRE -240 80 -240 64
WIRE -144 80 -144 48
WIRE -48 128 -48 96
WIRE 48 128 -48 128
WIRE 416 128 304 128
WIRE 416 144 416 128
WIRE 528 144 528 112
WIRE 624 144 624 128
WIRE 800 144 800 128
WIRE -16 224 -112 224
WIRE 48 224 -16 224
WIRE 320 224 304 224
WIRE -112 240 -112 224
WIRE -16 240 -16 224
WIRE 416 240 416 224
WIRE -112 336 -112 320
WIRE -16 336 -16 304
FLAG 320 224 0
FLAG -16 336 0
FLAG -112 336 0
FLAG 416 240 0
FLAG 528 144 0
FLAG -240 80 0
FLAG 800 32 OUT
FLAG -240 -32 IN
FLAG -144 80 0
FLAG 624 144 0
FLAG 800 144 0
SYMBOL voltage -240 -32 R0
WINDOW 123 0 0 Left 0
WINDOW 39 0 0 Left 0
SYMATTR InstName V1
SYMATTR Value 5
SYMBOL ind 304 48 R270
WINDOW 0 32 56 VTop 0
WINDOW 3 5 56 VBottom 0
SYMATTR InstName L1
SYMATTR Value 1.5µ
SYMBOL res -128 224 R0
SYMATTR InstName R1
SYMATTR Value 105K
SYMBOL cap -32 240 R0
SYMATTR InstName C1
SYMATTR Value 1µ
SYMBOL res 400 32 R0
SYMATTR InstName R2
SYMATTR Value 1Meg
SYMBOL res 400 128 R0
SYMATTR InstName R3
SYMATTR Value 210K
SYMBOL cap 512 48 R0
SYMATTR InstName C2
SYMATTR Value 100µ
SYMBOL LTC3606B 176 128 R0
SYMATTR InstName U1
SYMBOL res -64 0 R0
SYMATTR InstName R4
SYMATTR Value 499K
SYMBOL cap -160 -16 R0
WINDOW 40 31 77 Left 0
WINDOW 3 32 50 Left 0
SYMATTR SpiceLine2 x2
SYMATTR Value 10µ
SYMATTR InstName C3
SYMATTR SpiceLine Rser=5m
SYMBOL polcap 608 64 R0
WINDOW 40 26 60 Left 0
WINDOW 3 37 33 Left 0
SYMATTR SpiceLine2 x2
SYMATTR Value {2200µ/10}
SYMATTR InstName C4
SYMATTR SpiceLine V=6.3 Rser=55m
SYMBOL res 784 32 R0
SYMATTR InstName R5
SYMATTR Value 10
TEXT 592 304 Left 0 !.tran 1.5m startup
TEXT 176 -56 Bottom 0 ;LTC3606B - 800mA Synchronous Step-Down DC/DC with Average Input Current Limit\nInput: 4.5V - 5.5V     Outputs: 3.3V @ 2A (Pulse Load)
TEXT 800 176 Top 0 ;3.3V @ 2A Pulse Load
TEXT -320 344 Left 0 ;Note:\n  C4s' values have been reduced 10 fold to shorten simulation time.  They are intended to be super caps that supports\n  a 2A pulsed load.\n \n  If the simulation model is not found please update with the "Sync Release" command from the "Tools" menu.\n  It remains the customer's responsibility to verify proper and reliable operation in the actual application.\n  Component substitution and printed circuit board layout may significantly affect circuit performance or reliability.\n  Contact your local sales representative for assistance. This circuit is distributed to customers only for use with LTC parts.\n  Copyright © 2011 Linear Technology Inc. All rights reserved.
