Version 4
SHEET 1 2576 680
WIRE -144 -80 -240 -80
WIRE -64 -80 -144 -80
WIRE 128 -80 -64 -80
WIRE 224 -80 128 -80
WIRE 352 -80 224 -80
WIRE 464 -80 400 -80
WIRE 544 -80 464 -80
WIRE -240 -64 -240 -80
WIRE -144 -64 -144 -80
WIRE 464 -64 464 -80
WIRE 544 -64 544 -80
WIRE 128 -48 128 -80
WIRE 224 -48 224 -80
WIRE -64 16 -64 -80
WIRE 32 16 -64 16
WIRE 400 16 400 -80
WIRE 400 16 320 16
WIRE -240 32 -240 16
WIRE -144 32 -144 0
WIRE 464 32 464 0
WIRE 544 32 544 16
WIRE -64 112 -64 16
WIRE 32 112 -64 112
WIRE 368 112 320 112
WIRE 480 112 448 112
WIRE 528 112 480 112
WIRE 624 112 528 112
WIRE 528 128 528 112
WIRE 624 128 624 112
WIRE -64 208 -64 192
WIRE 32 208 -64 208
WIRE 480 208 480 112
WIRE 480 208 320 208
WIRE 528 224 528 192
WIRE 624 224 624 208
WIRE 32 304 -64 304
WIRE 352 304 352 -80
WIRE 352 304 320 304
WIRE -64 320 -64 304
WIRE 128 384 128 368
WIRE 224 384 224 368
WIRE -64 416 -64 400
FLAG -240 32 0
FLAG 128 384 0
FLAG 528 224 0
FLAG 624 224 0
FLAG 624 112 VTT
FLAG -240 -80 IN
FLAG 224 384 0
FLAG -64 416 0
FLAG -144 32 0
FLAG 544 32 0
FLAG 464 32 0
FLAG 544 -80 VTTR
SYMBOL voltage -240 -80 R0
SYMATTR InstName V1
SYMATTR Value 2.5
SYMBOL ind 352 128 R270
WINDOW 0 32 56 VTop 2
WINDOW 3 5 56 VBottom 2
SYMATTR InstName L1
SYMATTR Value .22µ
SYMATTR SpiceLine Rser=5m Rpar=5K
SYMBOL cap 512 128 R0
SYMATTR Value 100µ
SYMATTR InstName C1
SYMBOL res 608 112 R0
SYMATTR InstName Rload
SYMATTR Value .2
SYMBOL PowerProducts\\LTC3617 176 160 R0
SYMATTR InstName U1
SYMBOL res -80 96 R0
SYMATTR InstName R2
SYMATTR Value 100K
SYMBOL cap -160 -64 R0
SYMATTR InstName C3
SYMATTR Value 100µ
SYMBOL res -80 304 R0
SYMATTR InstName R1
SYMATTR Value 365K
SYMBOL res 528 -80 R0
SYMATTR InstName R3
SYMATTR Value 1k
SYMBOL cap 448 -64 R0
SYMATTR InstName C2
SYMATTR Value .1µ
TEXT 480 408 Left 2 !.tran 2m startup
TEXT 528 112 Bottom 2 ;1.25V
TEXT -64 304 Bottom 2 ;f = 1MHz
TEXT 488 64 Left 2 ;VTT = VTTR = VDDQ/2
TEXT 176 -128 Bottom 2 ;LTC3617 - ±6A Monolithic Synchronous Step-Down Regulator For DDR Termination\nInput: 2.25V to 5.5V     Outputs: VTTR @ 10mA, VTT @ ±6A
TEXT 432 -80 Bottom 2 ;10mA max
TEXT 344 328 Left 2 ;Internal Compensation Selected
TEXT -456 432 Left 2 ;Note:\n  If the simulation model is not found please update with the "Sync Release" command from the "Tools" menu.\n  It remains the customer's responsibility to verify proper and reliable operation in the actual application.\n  Component substitution and printed circuit board layout may significantly affect circuit performance or reliability.\n  Contact your local sales representative for assistance. This circuit is distributed to customers only for use with LTC parts.\n  Copyright © 2011 Linear Technology Inc. All rights reserved.
