Version 4
SHEET 1 1100 1448
WIRE -320 -96 -432 -96
WIRE -224 -96 -320 -96
WIRE -80 -96 -224 -96
WIRE -48 -96 -80 -96
WIRE 368 -96 240 -96
WIRE 448 -96 368 -96
WIRE 544 -96 448 -96
WIRE 624 -96 544 -96
WIRE 720 -96 624 -96
WIRE -224 -80 -224 -96
WIRE 448 -80 448 -96
WIRE 544 -80 544 -96
WIRE 624 -80 624 -96
WIRE 720 -80 720 -96
WIRE -432 -64 -432 -96
WIRE -320 -64 -320 -96
WIRE 368 -64 368 -96
WIRE -80 -32 -80 -96
WIRE -48 -32 -80 -32
WIRE 288 -32 240 -32
WIRE 544 16 544 -16
WIRE 624 16 624 -16
WIRE 720 16 720 0
WIRE -224 32 -224 0
WIRE -48 32 -224 32
WIRE 288 32 240 32
WIRE 368 32 368 0
WIRE 448 32 448 0
WIRE 448 32 368 32
WIRE -432 48 -432 16
WIRE -320 48 -320 0
WIRE -224 48 -224 32
WIRE 448 48 448 32
WIRE -48 96 -128 96
WIRE 288 96 240 96
WIRE -224 144 -224 128
WIRE 448 144 448 128
WIRE -48 160 -80 160
WIRE 288 160 240 160
WIRE -80 176 -80 160
WIRE -128 224 -128 96
WIRE 368 224 368 32
WIRE 368 224 -128 224
FLAG -224 144 0
FLAG 720 -96 OUT
FLAG 624 16 0
FLAG -432 48 0
FLAG -320 48 0
FLAG -80 176 0
FLAG 544 16 0
FLAG 720 16 0
FLAG -432 -96 IN
FLAG 448 144 0
SYMBOL cap 272 32 M180
WINDOW 0 24 64 Left 0
WINDOW 3 24 8 Left 0
SYMATTR InstName C1
SYMATTR Value 2.2µ
SYMATTR SpiceLine V=10 Irms=11.471 Rser=0.004 MTBF=0 Lser=0 mfg="KEMET" pn="C0603C225K8PAC" type="X5R" ppPkg=1
SYMBOL cap 528 -80 R0
SYMATTR InstName C2
SYMATTR Value 4.7µ
SYMATTR SpiceLine V=10 Irms=10.158 Rser=0.004 MTBF=0 Lser=0 mfg="KEMET" pn="C0805C475K8PAC" type="X5R" ppPkg=1
SYMBOL cap -336 -64 R0
SYMATTR InstName C3
SYMATTR Value 2.2µ
SYMATTR SpiceLine V=10 Irms=11.471 Rser=0.004 MTBF=0 Lser=0 mfg="KEMET" pn="C0603C225K8PAC" type="X5R" ppPkg=1
SYMBOL voltage -432 -80 R0
WINDOW 123 0 0 Left 0
WINDOW 39 24 132 Left 0
SYMATTR InstName V1
SYMATTR Value 4
SYMBOL res -240 32 R0
SYMATTR InstName R1
SYMATTR Value 100K
SYMBOL res -240 -96 R0
SYMATTR InstName R2
SYMATTR Value 267K
SYMBOL cap 272 96 R0
SYMATTR InstName C4
SYMATTR Value 2.2µ
SYMATTR SpiceLine V=10 Irms=11.471 Rser=0.004 MTBF=0 Lser=0 mfg="KEMET" pn="C0603C225K8PAC" type="X5R" ppPkg=1
SYMBOL cap 608 -80 R0
SYMATTR InstName C5
SYMATTR Value 4.7µ
SYMATTR SpiceLine V=10 Irms=10.158 Rser=0.004 MTBF=0 Lser=0 mfg="KEMET" pn="C0805C475K8PAC" type="X5R" ppPkg=1
SYMBOL res 704 -96 R0
WINDOW 0 36 48 Left 0
SYMATTR InstName Rload
SYMATTR Value 6.6
SYMBOL PowerProducts\\LTC3203B 96 32 R0
SYMATTR InstName U1
SYMBOL res 432 -96 R0
SYMATTR InstName R3
SYMATTR Value 280K
SYMBOL res 432 32 R0
SYMATTR InstName R4
SYMATTR Value 105K
SYMBOL cap 352 -64 R0
SYMATTR InstName C6
SYMATTR Value 4.7p
TEXT 464 192 Left 0 !.tran 1m startup
TEXT 104 -152 Bottom 0 ;LTC3203B- 500mA Output Current Low Noise Dual Mode Step-up Charge Pump\nInput: 2.7V-5.5V    Output: 3.3V @ 500mA
TEXT -496 192 Left 0 ;Notes:\n \n  1.  All Capacitors are Ceramic\n \n  2.  If the simulation model is not found please update with the "Sync Release" command from the "Tools" menu.\n       It remains the customer's responsibility to verify proper and reliable operation in the actual application.\n       Component substitution and printed circuit board layout may significantly affect circuit performance or reliability\n       Contact your local sales representative for assistance. This circuit is distributed to customers only for use with LTC parts\n       Copyright © 2006 Linear Technology Inc. All rights reserved.
