Version 4
SHEET 1 2936 1972
WIRE 1472 1248 1360 1248
WIRE 1552 1248 1472 1248
WIRE 1712 1248 1552 1248
WIRE 1360 1280 1360 1248
WIRE 1712 1280 1712 1248
WIRE 1472 1296 1472 1248
WIRE 1552 1344 1552 1248
WIRE 1584 1344 1552 1344
WIRE 1856 1344 1840 1344
WIRE 1952 1344 1936 1344
WIRE 2048 1344 1952 1344
WIRE 2176 1344 2048 1344
WIRE 2304 1344 2176 1344
WIRE 2048 1360 2048 1344
WIRE 1952 1376 1952 1344
WIRE 2176 1376 2176 1344
WIRE 2304 1376 2304 1344
WIRE 1360 1392 1360 1360
WIRE 1472 1392 1472 1360
WIRE 1584 1472 1552 1472
WIRE 1952 1472 1952 1440
WIRE 1952 1472 1840 1472
WIRE 2048 1472 2048 1440
WIRE 2048 1472 1952 1472
WIRE 2176 1472 2176 1440
WIRE 2304 1472 2304 1456
WIRE 1952 1488 1952 1472
WIRE 2048 1488 2048 1472
WIRE 1712 1552 1712 1536
WIRE 1952 1584 1952 1552
WIRE 2048 1584 2048 1568
FLAG 1712 1552 0
FLAG 1552 1472 0
FLAG 1360 1392 0
FLAG 2304 1472 0
FLAG 2048 1584 0
FLAG 2176 1472 0
FLAG 1472 1392 0
FLAG 2304 1344 OUT
FLAG 1360 1248 IN
FLAG 1952 1584 0
SYMBOL ind 1840 1360 R270
WINDOW 0 32 56 VTop 0
WINDOW 3 5 56 VBottom 0
SYMATTR InstName L1
SYMATTR Value 3.3µ
SYMATTR SpiceLine Ipk=1 Rser=.042
SYMBOL RES 2032 1344 R0
SYMATTR InstName R1
SYMATTR Value 97.6K
SYMBOL VOLTAGE 1360 1264 R0
WINDOW 123 0 0 Left 0
WINDOW 39 -133 105 Left 0
WINDOW 0 29 20 Left 0
WINDOW 3 25 91 Left 0
SYMATTR InstName V1
SYMATTR Value 3.3
SYMBOL cap 2160 1376 R0
SYMATTR InstName C2
SYMATTR Value 2µ
SYMATTR SpiceLine V=10 Irms=8.919 Rser=0.005 MTBF=0 Lser=0 ppPkg=1
SYMBOL res 2032 1472 R0
SYMATTR InstName R2
SYMATTR Value 102K
SYMBOL current 2304 1376 R0
WINDOW 123 0 0 Left 0
WINDOW 39 42 40 Left 0
WINDOW 3 23 77 Left 0
SYMATTR SpiceLine load
SYMATTR Value PULSE(.05 .2 1m 5n 5n 50u 100u)
SYMATTR InstName I1
SYMBOL cap 1456 1296 R0
WINDOW 0 22 8 Left 0
WINDOW 3 23 62 Left 0
SYMATTR InstName C1
SYMATTR Value 1µ
SYMATTR SpiceLine V=10 Irms=8.919 Rser=0.005 MTBF=0 Lser=0 ppPkg=1
SYMBOL cap 1936 1376 R0
SYMATTR InstName C3
SYMATTR Value 40p
SYMATTR SpiceLine Rser=.1u
SYMBOL PowerProducts\\LTC3549 1712 1408 R0
SYMATTR InstName U1
SYMBOL cap 1936 1488 R0
SYMATTR InstName C4
SYMATTR Value 20p
TEXT 2160 1560 Left 0 !.tran 1.25m startup
TEXT 1856 1232 Bottom 0 ;LTC3549 - 250mA Low Vin Buck Regulator in 2mm × 3mm DFN\nInput: 3.3V     Output:  1.2V @ 250mA
TEXT 1256 1600 Left 0 ;Note:\n  If the simulation model is not found please update with the "Sync Release" command from the "Tools" menu.\n  It remains the customer's responsibility to verify proper and reliable operation in the actual application.\n  Component substitution and printed circuit board layout may significantly affect circuit performance or reliability.\n  Contact your local sales representative for assistance. This circuit is distributed to customers only for use with LTC parts.\n  Copyright © 2007 Linear Technology Inc. All rights reserved.
