Version 4
SHEET 1 2532 680
WIRE 400 -368 80 -368
WIRE 624 -368 400 -368
WIRE 80 -352 80 -368
WIRE 400 -352 400 -368
WIRE 400 -272 400 -288
WIRE 80 -256 80 -272
WIRE 624 -208 624 -368
WIRE 624 -208 528 -208
WIRE 624 -112 624 -128
WIRE 624 -112 528 -112
WIRE 624 -32 624 -112
WIRE -48 -16 -96 -16
WIRE 64 -16 32 -16
WIRE 272 -16 64 -16
WIRE 576 -16 528 -16
WIRE -96 0 -96 -16
WIRE 64 0 64 -16
WIRE -96 80 -96 64
WIRE 64 80 64 64
WIRE 192 80 160 80
WIRE 272 80 256 80
WIRE 576 80 528 80
WIRE 624 80 624 64
WIRE 704 80 624 80
WIRE 800 80 768 80
WIRE 960 80 800 80
WIRE 1072 80 960 80
WIRE 1184 80 1072 80
WIRE 624 96 624 80
WIRE 800 96 800 80
WIRE 960 96 960 80
WIRE 1072 96 1072 80
WIRE 1184 96 1184 80
WIRE 176 176 160 176
WIRE 272 176 256 176
WIRE 544 176 528 176
WIRE 624 192 624 176
WIRE 960 192 960 160
WIRE 1072 192 1072 160
WIRE 1184 192 1184 176
WIRE 576 224 576 80
WIRE 720 224 576 224
WIRE 800 224 800 176
WIRE 800 224 720 224
WIRE 720 240 720 224
WIRE 800 240 800 224
WIRE 352 256 352 240
WIRE 448 256 448 240
WIRE 544 336 544 176
WIRE 720 336 720 304
WIRE 720 336 544 336
WIRE 800 336 800 320
WIRE 800 336 720 336
FLAG 352 256 0
FLAG 448 256 0
FLAG 160 176 0
FLAG -96 80 0
FLAG 80 -256 0
FLAG 624 192 0
FLAG 960 192 0
FLAG 1184 192 0
FLAG 80 -368 IN
FLAG 1184 80 OUT
FLAG 1072 192 0
FLAG 64 80 0
FLAG 160 80 0
SYMBOL cap -112 0 R0
WINDOW 39 24 71 Left 2
SYMATTR InstName C2
SYMATTR Value 27n
SYMBOL voltage 80 -368 R0
SYMATTR InstName V1
SYMATTR Value 12
SYMBOL cap 384 -352 R0
SYMATTR InstName C5
SYMATTR Value .47µ
SYMBOL res 608 -224 R0
SYMATTR InstName R7
SYMATTR Value 16m
SYMBOL pmos 576 64 M180
WINDOW 0 58 109 Left 2
WINDOW 3 56 57 Left 2
SYMATTR InstName Q1
SYMATTR Value FDS6675
SYMBOL schottky 768 96 M270
WINDOW 0 32 32 VTop 2
WINDOW 3 0 32 VBottom 2
SYMATTR InstName D1
SYMATTR Value B540C
SYMATTR Description Diode
SYMATTR Type diode
SYMBOL ind 608 80 R0
SYMATTR InstName L1
SYMATTR Value 10µ
SYMATTR SpiceLine Rser=25m
SYMBOL res 784 80 R0
SYMATTR InstName R5
SYMATTR Value 1.21Meg
SYMBOL res 784 224 R0
SYMATTR InstName R3
SYMATTR Value 80.6K
SYMBOL polcap 944 160 M180
WINDOW 3 24 8 Left 2
WINDOW 0 24 57 Left 2
WINDOW 123 24 -13 Left 2
SYMATTR Value 33µ
SYMATTR InstName C12
SYMATTR Value2 x2
SYMATTR SpiceLine Rser=5m
SYMATTR Description Capacitor
SYMATTR Type cap
SYMBOL res 1168 80 R0
SYMATTR InstName Rload
SYMATTR Value 12
SYMBOL LTC3863 400 -16 R0
SYMATTR InstName U1
SYMBOL res 272 160 R90
WINDOW 0 0 56 VBottom 2
WINDOW 3 32 56 VTop 2
SYMATTR InstName R1
SYMATTR Value 61.9K
SYMBOL polcap 1056 160 M180
WINDOW 3 24 8 Left 2
WINDOW 0 24 57 Left 2
WINDOW 123 24 -13 Left 2
SYMATTR Value 150µ
SYMATTR InstName C34
SYMATTR Value2 x2
SYMATTR SpiceLine Rser=25m
SYMATTR Description Capacitor
SYMATTR Type cap
SYMBOL cap 704 240 R0
SYMATTR InstName C8
SYMATTR Value 68p
SYMBOL res 48 -32 R90
WINDOW 0 0 56 VBottom 2
WINDOW 3 32 56 VTop 2
SYMATTR InstName R2
SYMATTR Value 14.7K
SYMBOL cap 48 0 R0
SYMATTR InstName C3
SYMATTR Value 390p
SYMBOL cap 256 64 R90
WINDOW 0 0 32 VBottom 2
WINDOW 3 32 32 VTop 2
SYMATTR InstName C6
SYMATTR Value 100n
TEXT 968 288 Left 2 !.tran 10m startup
TEXT -112 336 Left 2 ;Note:\n  A smaller value SS capacitor (C6) can be used to reduce simulation time. \n  If the simulation model is not found please update with the "Sync Release" command from the "Tools" menu.\n  It remains the customer's responsibility to verify proper and reliable operation in the actual application.\n  Component substitution and printed circuit board layout may significantly affect circuit performance or reliability\n  Contact your local sales representative for assistance. This circuit is distributed to customers only for use with LTC parts\n  Copyright © 2014 Linear Technology Inc. All rights reserved.
TEXT 728 -120 Left 2 ;1- Parasitics not modeled\n2- Component substitutions have been made\n     based on available component models
TEXT 392 -400 Bottom 2 ;LTC3863 - 60V, Low IQ Inverting DC/DC Controller\nLow Iq Inverting DC/DC Converter\nInput: 4.5V to 16V     Output: -12V @ 1A
