Version 4
SHEET 1 1312 1684
WIRE -64 528 -560 528
WIRE 112 528 -64 528
WIRE 208 528 112 528
WIRE 352 528 208 528
WIRE -64 544 -64 528
WIRE 208 544 208 528
WIRE 352 544 352 528
WIRE -560 624 -560 528
WIRE -448 624 -560 624
WIRE -64 624 -64 608
WIRE -64 624 -96 624
WIRE 112 624 112 528
WIRE 208 624 208 608
WIRE 352 640 352 624
WIRE -560 704 -560 624
WIRE -448 704 -560 704
WIRE 64 704 -96 704
WIRE -560 784 -560 704
WIRE -544 784 -560 784
WIRE -448 784 -464 784
WIRE 112 784 112 720
WIRE 112 784 -96 784
WIRE 112 848 112 784
WIRE 112 848 -16 848
WIRE 192 848 112 848
WIRE 256 848 192 848
WIRE 368 848 336 848
WIRE 464 848 368 848
WIRE 560 848 464 848
WIRE 656 848 560 848
WIRE 752 848 656 848
WIRE -64 864 -64 688
WIRE -64 864 -96 864
WIRE -16 864 -16 848
WIRE -16 864 -64 864
WIRE 112 864 112 848
WIRE 192 864 192 848
WIRE 560 864 560 848
WIRE 656 864 656 848
WIRE 752 864 752 848
WIRE 464 880 464 848
WIRE 368 896 368 848
WIRE 64 944 -96 944
WIRE 192 944 192 928
WIRE 560 960 560 928
WIRE 656 960 656 928
WIRE 752 960 752 944
WIRE 112 976 112 960
WIRE -560 1024 -560 784
WIRE -448 1024 -560 1024
WIRE 368 1024 368 976
WIRE 368 1024 -96 1024
WIRE 464 1024 464 944
WIRE 464 1024 368 1024
WIRE 368 1040 368 1024
WIRE -560 1104 -560 1024
WIRE -448 1104 -560 1104
WIRE -64 1104 -96 1104
WIRE -16 1104 -64 1104
WIRE 96 1104 64 1104
WIRE -64 1120 -64 1104
WIRE 96 1120 96 1104
WIRE 368 1136 368 1120
WIRE -272 1184 -272 1152
WIRE -64 1200 -64 1184
WIRE 96 1200 96 1184
FLAG -64 1200 0
FLAG 96 1200 0
FLAG 352 640 0
FLAG 112 976 0
FLAG 560 960 0
FLAG 368 1136 0
FLAG 752 848 OUT
FLAG 752 960 0
FLAG -272 1184 0
FLAG 208 624 0
FLAG 352 528 IN
FLAG 656 960 0
FLAG 192 944 0
SYMBOL cap 80 1120 R0
SYMATTR InstName C1
SYMATTR Value 1000p
SYMBOL cap -80 1120 R0
SYMATTR InstName C2
SYMATTR Value 10p
SYMBOL res -32 1120 R270
WINDOW 0 32 56 VTop 0
WINDOW 3 0 56 VBottom 0
SYMATTR InstName R1
SYMATTR Value 5.1K
SYMBOL VOLTAGE 352 528 R0
WINDOW 123 0 0 Left 0
WINDOW 39 0 0 Left 0
SYMATTR InstName V1
SYMATTR Value 3.3
SYMBOL nmos 64 864 R0
WINDOW 3 71 122 Left 0
SYMATTR InstName Q1
SYMATTR Value Si4866DY
SYMBOL res 352 1024 R0
SYMATTR InstName R2
SYMATTR Value 59K
SYMBOL res 352 880 R0
SYMATTR InstName R3
SYMATTR Value 118K
SYMBOL cap 544 864 R0
SYMATTR SpiceLine Rser=0.005
SYMATTR InstName C3
SYMATTR Value 47µ
SYMBOL ind 240 864 R270
WINDOW 0 32 56 VTop 0
WINDOW 3 5 56 VBottom 0
SYMATTR InstName L1
SYMATTR Value .47µ
SYMATTR SpiceLine Rpar=2K
SYMBOL cap 192 544 R0
WINDOW 3 39 33 Left 0
WINDOW 40 28 59 Left 0
SYMATTR Value 47µ
SYMATTR SpiceLine2 x2
SYMATTR InstName C4
SYMBOL cap 448 880 R0
SYMATTR InstName C5
SYMATTR Value 220p
SYMBOL nmos 64 624 R0
SYMATTR InstName Q2
SYMATTR Value Si4866DY
SYMBOL cap -80 624 R0
WINDOW 3 30 49 Left 0
WINDOW 0 32 15 Left 0
SYMATTR Value .22µ
SYMATTR InstName C6
SYMBOL schottky -80 544 R0
WINDOW 3 35 48 Left 0
WINDOW 0 33 13 Left 0
SYMATTR Value CMDSH2-3
SYMATTR InstName D1
SYMATTR Description Diode
SYMATTR Type diode
SYMBOL schottky 176 928 M180
WINDOW 0 30 63 Left 0
WINDOW 3 24 0 Left 0
SYMATTR InstName D2
SYMATTR Value MBRS130L
SYMATTR Description Diode
SYMATTR Type diode
SYMBOL PowerProducts\\LTC3822-1 -272 864 R0
SYMATTR InstName U1
SYMBOL res -560 800 R270
WINDOW 0 32 56 VTop 0
WINDOW 3 0 56 VBottom 0
SYMATTR InstName R4
SYMATTR Value 100K
SYMBOL res 736 848 R0
SYMATTR InstName Rload
SYMATTR Value .18
SYMBOL cap 640 864 R0
SYMATTR InstName C7
SYMATTR Value 470µ
TEXT 336 1200 Left 0 !.tran 2m startup
TEXT 48 512 Bottom 0 ;LTC3822-1 - No Rsense(TM), Low Input Voltage, Synchronous Step-down DC/DC Converter\nInput: 3.3V              Output: 1.8V @ 10A
TEXT -552 1216 Left 0 ;Note:\n  If the simulation model is not found please update with the "Sync Release" command from the "Tools" menu.\n  It remains the customer's responsibility to verify proper and reliable operation in the actual application.\n  Component substitution and printed circuit board layout may significantly affect circuit performance or reliability\n  Contact your local sales representative for assistance. This circuit is distributed to customers only for use with LTC parts\n  Copyright © 2008 Linear Technology Inc. All rights reserved.
