Version 4
SHEET 1 1404 1300
WIRE -608 -448 -688 -448
WIRE -528 -448 -608 -448
WIRE -464 -448 -528 -448
WIRE -304 -448 -464 -448
WIRE 368 -448 -304 -448
WIRE 656 -448 368 -448
WIRE -688 -432 -688 -448
WIRE -608 -432 -608 -448
WIRE -528 -432 -528 -448
WIRE -464 -432 -464 -448
WIRE -160 -400 -224 -400
WIRE 176 -400 -160 -400
WIRE 512 -400 176 -400
WIRE -224 -384 -224 -400
WIRE 176 -368 176 -400
WIRE 368 -368 368 -448
WIRE -688 -336 -688 -352
WIRE -608 -336 -608 -368
WIRE -528 -336 -528 -368
WIRE -464 -336 -464 -368
WIRE -224 -304 -224 -320
WIRE 512 -288 512 -400
WIRE -160 -208 -160 -400
WIRE -304 -192 -304 -448
WIRE 656 -192 656 -448
WIRE -32 -112 -256 -112
WIRE 608 -112 480 -112
WIRE -784 -16 -912 -16
WIRE -672 -16 -784 -16
WIRE -592 -16 -672 -16
WIRE -576 -16 -592 -16
WIRE -480 -16 -496 -16
WIRE -448 -16 -480 -16
WIRE -304 -16 -304 -96
WIRE -304 -16 -368 -16
WIRE -256 -16 -304 -16
WIRE -160 -16 -160 -144
WIRE -160 -16 -192 -16
WIRE -32 -16 -160 -16
WIRE 512 -16 512 -224
WIRE 512 -16 480 -16
WIRE 560 -16 512 -16
WIRE 656 -16 656 -96
WIRE 656 -16 624 -16
WIRE 704 -16 656 -16
WIRE 848 -16 784 -16
WIRE 880 -16 848 -16
WIRE 976 -16 960 -16
WIRE 1056 -16 976 -16
WIRE 1184 -16 1056 -16
WIRE 1296 -16 1184 -16
WIRE -912 0 -912 -16
WIRE 1296 0 1296 -16
WIRE -784 16 -784 -16
WIRE -672 16 -672 -16
WIRE 1056 16 1056 -16
WIRE 1184 16 1184 -16
WIRE -304 80 -304 -16
WIRE -32 80 -304 80
WIRE 656 80 656 -16
WIRE 656 80 480 80
WIRE -912 96 -912 80
WIRE -784 96 -784 80
WIRE -672 96 -672 80
WIRE -304 96 -304 80
WIRE 656 96 656 80
WIRE 1056 96 1056 80
WIRE 1184 96 1184 80
WIRE 1296 96 1296 80
WIRE -32 176 -256 176
WIRE 608 176 480 176
WIRE -304 208 -304 192
WIRE 656 208 656 192
WIRE -32 272 -64 272
WIRE 512 272 480 272
WIRE -480 368 -480 -16
WIRE -272 368 -480 368
WIRE -112 368 -192 368
WIRE -32 368 -112 368
WIRE 528 368 480 368
WIRE 640 368 528 368
WIRE 848 368 848 -16
WIRE 848 368 720 368
WIRE -112 384 -112 368
WIRE 528 384 528 368
WIRE -592 464 -592 -16
WIRE -272 464 -592 464
WIRE -112 464 -112 448
WIRE -112 464 -192 464
WIRE -32 464 -112 464
WIRE 528 464 528 448
WIRE 528 464 480 464
WIRE 640 464 528 464
WIRE 976 464 976 -16
WIRE 976 464 720 464
WIRE -592 560 -592 464
WIRE -32 560 -592 560
WIRE 976 560 976 464
WIRE 976 560 480 560
WIRE -320 656 -352 656
WIRE -224 656 -240 656
WIRE -32 656 -224 656
WIRE 672 656 480 656
WIRE 688 656 672 656
WIRE 800 656 768 656
WIRE 672 672 672 656
WIRE 800 672 800 656
WIRE -352 688 -352 656
WIRE -224 688 -224 656
WIRE -128 752 -144 752
WIRE -32 752 -64 752
WIRE 512 752 480 752
WIRE 608 752 576 752
WIRE 672 752 672 736
WIRE 800 752 800 736
WIRE -352 768 -352 752
WIRE -224 768 -224 752
WIRE 496 848 480 848
WIRE -32 944 -48 944
WIRE 512 944 480 944
WIRE 96 1024 96 1008
WIRE 224 1024 224 1008
WIRE 96 1120 96 1104
FLAG 656 208 0
FLAG 96 1120 0
FLAG -304 208 0
FLAG -688 -336 0
FLAG -224 -304 0
FLAG -672 96 0
FLAG -912 96 0
FLAG 224 1024 0
FLAG -688 -448 IN
FLAG -912 -16 OUT1
FLAG -48 944 0
FLAG 496 848 0
FLAG -144 752 0
FLAG 608 752 0
FLAG -64 272 0
FLAG 512 272 0
FLAG 1056 96 0
FLAG 1296 96 0
FLAG 1296 -16 OUT2
FLAG 512 944 INTVcc
FLAG -608 -336 0
FLAG -528 -336 0
FLAG -464 -336 0
FLAG -784 96 0
FLAG 1184 96 0
FLAG -352 768 0
FLAG -224 768 0
FLAG 672 752 0
FLAG 800 752 0
FLAG 176 -400 INTVcc
SYMBOL voltage -688 -448 R0
SYMATTR InstName V1
SYMATTR Value 12
SYMBOL cap 560 0 R270
WINDOW 0 32 32 VTop 0
WINDOW 3 0 32 VBottom 0
SYMATTR InstName C1
SYMATTR Value .1µ
SYMBOL ind 688 0 R270
WINDOW 0 32 56 VTop 0
WINDOW 3 5 56 VBottom 0
SYMATTR InstName L1
SYMATTR Value .47µ
SYMATTR SpiceLine Rpar=2K
SYMBOL schottky 496 -288 R0
WINDOW 3 20 71 Left 0
SYMATTR Value CMDSH2-3
SYMATTR InstName D1
SYMATTR Description Diode
SYMATTR Type diode
SYMBOL nmos -256 -192 M0
SYMATTR InstName Q3
SYMATTR Value RJK0305DPB
SYMBOL cap -192 0 M270
WINDOW 0 32 32 VTop 0
WINDOW 3 0 32 VBottom 0
SYMATTR InstName C4
SYMATTR Value .1µ
SYMBOL ind -352 0 M270
WINDOW 0 32 56 VTop 0
WINDOW 3 5 56 VBottom 0
SYMATTR InstName L2
SYMATTR Value .47µ
SYMATTR SpiceLine Rpar=2K
SYMBOL res -480 -32 R90
WINDOW 0 0 56 VBottom 0
WINDOW 3 32 56 VTop 0
SYMATTR InstName R5
SYMATTR Value 2m
SYMBOL schottky -176 -208 R0
SYMATTR Value CMDSH2-3
SYMATTR InstName D2
SYMATTR Description Diode
SYMATTR Type diode
SYMBOL cap -240 -384 R0
SYMATTR InstName C6
SYMATTR Value 4.7µ
SYMBOL cap -688 16 R0
WINDOW 3 25 61 Left 0
SYMATTR Value 100µ
SYMATTR InstName C8
SYMBOL res -928 -16 R0
SYMATTR InstName Rload1
SYMATTR Value .1
SYMBOL nmos -256 96 M0
SYMATTR InstName Q1
SYMATTR Value RJK0301DPB
SYMBOL nmos 608 -192 R0
SYMATTR InstName Q2
SYMATTR Value RJK0305DPB
SYMBOL nmos 608 96 R0
SYMATTR InstName Q4
SYMATTR Value RJK0301DPB
SYMBOL PowerProducts\\LTC3865 224 320 R0
SYMATTR InstName U1
SYMBOL res 80 1008 R0
SYMATTR InstName R4
SYMATTR Value 162K
SYMBOL cap -64 736 R90
WINDOW 0 0 32 VBottom 0
WINDOW 3 32 32 VTop 0
SYMATTR InstName C10
SYMATTR Value .002µ
SYMBOL cap 512 736 M90
WINDOW 0 0 32 VBottom 0
WINDOW 3 32 32 VTop 0
SYMATTR InstName C11
SYMATTR Value .002µ
SYMBOL res 864 -32 M90
WINDOW 0 0 56 VBottom 0
WINDOW 3 32 56 VTop 0
SYMATTR InstName R1
SYMATTR Value 2m
SYMBOL cap 1040 16 R0
WINDOW 3 25 61 Left 0
SYMATTR Value 220µ
SYMATTR InstName C2
SYMBOL res 1280 -16 R0
SYMATTR InstName Rload2
SYMATTR Value .08
SYMBOL polcap -624 -432 R0
SYMATTR InstName C5
SYMATTR Value 180µ
SYMBOL cap -544 -432 R0
SYMATTR InstName C7
SYMATTR Value 10µ
SYMBOL cap -480 -432 R0
SYMATTR InstName C12
SYMATTR Value 10µ
SYMBOL res -176 352 R90
WINDOW 0 0 56 VBottom 0
WINDOW 3 32 56 VTop 0
SYMATTR InstName R2
SYMATTR Value 100
SYMBOL res -176 448 R90
WINDOW 0 0 56 VBottom 0
WINDOW 3 32 56 VTop 0
SYMATTR InstName R3
SYMATTR Value 100
SYMBOL res 736 352 R90
WINDOW 0 0 56 VBottom 0
WINDOW 3 32 56 VTop 0
SYMATTR InstName R6
SYMATTR Value 100
SYMBOL res 736 448 R90
WINDOW 0 0 56 VBottom 0
WINDOW 3 32 56 VTop 0
SYMATTR InstName R7
SYMATTR Value 100
SYMBOL cap -128 384 R0
SYMATTR InstName C13
SYMATTR Value 1000p
SYMBOL cap 512 384 R0
SYMATTR InstName C14
SYMATTR Value 1000p
SYMBOL polcap -800 16 R0
SYMATTR InstName C15
SYMATTR Value 220µ
SYMBOL polcap 1168 16 R0
SYMATTR InstName C16
SYMATTR Value 100µ
SYMBOL res -224 640 R90
WINDOW 0 0 56 VBottom 0
WINDOW 3 32 56 VTop 0
SYMATTR InstName R8
SYMATTR Value 15K
SYMBOL res 784 640 R90
WINDOW 0 0 37 VBottom 0
WINDOW 3 30 31 VTop 0
SYMATTR InstName R9
SYMATTR Value 12K
SYMBOL cap -240 688 R0
SYMATTR InstName C3
SYMATTR Value 220p
SYMBOL cap -368 688 R0
SYMATTR InstName C9
SYMATTR Value 1n
SYMBOL cap 656 672 R0
SYMATTR InstName C17
SYMATTR Value 220p
SYMBOL cap 784 672 R0
SYMATTR InstName C18
SYMATTR Value 1n
TEXT 816 872 Left 0 !.tran 1.2m startup
TEXT -400 1128 Left 0 ;Note:\n  If the simulation model is not found please update with the "Sync Release" command from the "Tools" menu.\n  It remains the customer's responsibility to verify proper and reliable operation in the actual application.\n  Component substitution and printed circuit board layout may significantly affect circuit performance or reliability\n  Contact your local sales representative for assistance. This circuit is distributed to customers only for use with LTC parts\n  Copyright © 2011 Linear Technology Inc. All rights reserved.
TEXT 216 -448 Bottom 0 ;LTC3865 - Dual, 2-Phase Synchronous DC/DC Controller with Pin Selectable Outputs\nHigh Efficiency 1.5V @ 15A, 1.2V @ 15A Step-Down Converter Using Sense Resistors\nInput: 4.5V to 24V              Output1: 1.5V @ 15A; Output2: 1.2V @ 15A
