Version 4
SHEET 1 1392 680
WIRE -32 48 -128 48
WIRE 48 48 -32 48
WIRE 64 48 48 48
WIRE 368 48 352 48
WIRE 480 48 448 48
WIRE 528 48 480 48
WIRE 608 48 528 48
WIRE -128 64 -128 48
WIRE -32 64 -32 48
WIRE 528 64 528 48
WIRE 608 64 608 48
WIRE 48 144 48 48
WIRE 64 144 48 144
WIRE 480 144 480 48
WIRE 480 144 352 144
WIRE -128 160 -128 144
WIRE -32 160 -32 128
WIRE 528 160 528 128
WIRE 608 160 608 144
WIRE 64 240 48 240
WIRE 368 240 352 240
WIRE 368 336 352 336
WIRE 208 400 208 384
FLAG 208 400 0
FLAG -128 160 0
FLAG 48 240 0
FLAG 368 240 0
FLAG 368 336 0
FLAG 528 160 0
FLAG 608 160 0
FLAG -128 48 IN
FLAG 608 48 OUT
FLAG -32 160 0
SYMBOL PowerProducts\\LTC3388-1 208 192 R0
SYMATTR InstName U1
SYMBOL voltage -128 48 R0
SYMATTR InstName V1
SYMATTR Value 5
SYMBOL ind 352 64 R270
WINDOW 0 32 56 VTop 2
WINDOW 3 5 56 VBottom 2
SYMATTR InstName L1
SYMATTR Value 22µ
SYMATTR SpiceLine Rser=10m
SYMBOL cap 512 64 R0
SYMATTR InstName C1
SYMATTR Value 10µ
SYMBOL res 592 48 R0
SYMATTR InstName Rload
SYMATTR Value 24
SYMBOL cap -48 64 R0
SYMATTR InstName C2
SYMATTR Value 2.2µ
TEXT 464 256 Left 2 !.tran 10m startup
TEXT 208 -88 Top 2 ;LTC3388-1 - 20V High Efficiency Nanopower Step-Down Regulator\nLow Input Voltage Step-Down Converter\nInput: 2.7V to 5.5V     Output: 1.2V @ 50mA
TEXT -376 408 Left 2 ;Note:\n  If the simulation model is not found please update with the "Sync Release" command from the "Tools" menu.\n  It remains the customer's responsibility to verify proper and reliable operation in the actual application.\n  Component substitution and printed circuit board layout may significantly affect circuit performance or reliability.\n  Contact your local sales representative for assistance. This circuit is distributed to customers only for use with LTC parts.\n  Copyright © 2012 Linear Technology Inc. All rights reserved.
