Version 4
SHEET 1 1680 908
WIRE -336 0 -448 0
WIRE -304 0 -336 0
WIRE -224 0 -304 0
WIRE 368 0 -224 0
WIRE 400 0 368 0
WIRE 512 0 480 0
WIRE -448 16 -448 0
WIRE -304 32 -304 0
WIRE -224 32 -224 0
WIRE 368 32 368 0
WIRE -32 48 -48 48
WIRE 304 48 288 48
WIRE 720 112 592 112
WIRE 848 112 720 112
WIRE 896 112 848 112
WIRE 1040 112 896 112
WIRE 1136 112 1040 112
WIRE -448 128 -448 96
WIRE -304 128 -304 96
WIRE -224 128 -224 96
WIRE -128 128 -144 128
WIRE -32 128 -48 128
WIRE 368 128 368 96
WIRE 368 128 288 128
WIRE 592 128 592 112
WIRE 1136 128 1136 112
WIRE 720 144 720 112
WIRE 896 144 896 112
WIRE 1040 144 1040 112
WIRE -224 208 -272 208
WIRE -112 208 -144 208
WIRE -32 208 -112 208
WIRE 544 208 288 208
WIRE 896 240 896 208
WIRE 1040 240 1040 208
WIRE 1136 240 1136 208
WIRE -272 288 -272 272
WIRE -112 288 -112 272
WIRE -112 288 -272 288
WIRE -32 288 -112 288
WIRE 368 288 368 192
WIRE 368 288 288 288
WIRE 512 288 512 0
WIRE 512 288 368 288
WIRE 592 288 592 224
WIRE 592 288 512 288
WIRE 720 288 720 208
WIRE 720 288 592 288
WIRE 848 304 848 112
WIRE 848 304 752 304
WIRE 848 320 848 304
WIRE 752 336 752 304
WIRE -128 368 -144 368
WIRE -32 368 -48 368
WIRE 368 368 288 368
WIRE 416 368 368 368
WIRE 512 368 480 368
WIRE -336 448 -336 0
WIRE -32 448 -336 448
WIRE 368 448 288 448
WIRE 416 448 368 448
WIRE 512 448 480 448
WIRE 592 448 592 288
WIRE 752 448 752 400
WIRE -128 528 -144 528
WIRE -32 528 -64 528
WIRE 544 528 288 528
WIRE 592 560 592 544
WIRE 752 560 752 528
WIRE 848 560 848 400
WIRE 848 560 752 560
WIRE 848 576 848 560
WIRE -32 608 -48 608
WIRE 304 608 288 608
WIRE -336 672 -336 448
WIRE 368 672 368 448
WIRE 368 672 -336 672
WIRE 848 672 848 656
WIRE -272 704 -272 288
WIRE 752 704 752 560
WIRE 752 704 -272 704
FLAG -448 128 0
FLAG 304 608 0
FLAG -48 608 0
FLAG -48 48 0
FLAG 896 240 0
FLAG 1136 240 0
FLAG -144 368 0
FLAG -144 128 0
FLAG -144 528 0
FLAG 848 672 0
FLAG 1136 112 OUT
FLAG -448 0 IN
FLAG 1040 240 0
FLAG -224 128 0
FLAG 304 48 0
FLAG 512 368 0
FLAG 512 448 0
FLAG -304 128 0
FLAG 592 560 0
SYMBOL PowerProducts\\LTC3703 128 336 R0
SYMATTR InstName U1
SYMBOL nmos 544 128 R0
SYMATTR InstName Q1
SYMATTR Value Si7386DP
SYMBOL nmos 544 448 R0
SYMATTR InstName Q2
SYMATTR Value Si7386DP
SYMBOL voltage -448 0 R0
WINDOW 123 24 146 Left 0
WINDOW 39 24 125 Left 0
SYMATTR InstName V1
SYMATTR Value 12
SYMBOL ind 384 16 R270
WINDOW 0 32 56 VTop 0
WINDOW 3 5 56 VBottom 0
SYMATTR InstName L1
SYMATTR Value 3.3µ
SYMATTR SpiceLine Ipk=27 Rser=0.01069 Rpar=0 Cpar=0 mfg="Vishay" pn="IHLP5050CE06-3R3"
SYMBOL cap 880 144 R0
WINDOW 3 39 33 Left 0
WINDOW 123 28 60 Left 0
WINDOW 39 27 83 Left 0
SYMATTR Value 220µ
SYMATTR Value2 x3
SYMATTR SpiceLine Rser=20m
SYMATTR InstName C1
SYMBOL res -32 352 R90
WINDOW 0 0 56 VBottom 0
WINDOW 3 32 56 VTop 0
SYMATTR InstName R1
SYMATTR Value 15K
SYMBOL res -32 112 R90
WINDOW 0 0 56 VBottom 0
WINDOW 3 32 56 VTop 0
SYMATTR InstName R2
SYMATTR Value 30.1K
SYMBOL res -128 192 R90
WINDOW 0 0 56 VBottom 0
WINDOW 3 32 56 VTop 0
SYMATTR InstName R3
SYMATTR Value 50K
SYMBOL cap -288 208 R0
WINDOW 0 31 15 Left 0
WINDOW 3 28 56 Left 0
SYMATTR InstName C2
SYMATTR Value 0.0025µ
SYMBOL res 832 304 R0
SYMATTR InstName R4
SYMATTR Value 113K
SYMBOL cap -64 512 R90
WINDOW 0 0 32 VBottom 0
WINDOW 3 32 32 VTop 0
SYMATTR InstName C3
SYMATTR Value .0047µ
SYMBOL cap 352 128 R0
WINDOW 0 37 16 Left 0
WINDOW 3 37 52 Left 0
SYMATTR InstName C4
SYMATTR Value .1µ
SYMBOL res 832 560 R0
SYMATTR InstName R5
SYMATTR Value 3.92K
SYMBOL cap -128 208 R0
WINDOW 0 35 21 Left 0
WINDOW 3 28 56 Left 0
SYMATTR InstName C5
SYMATTR Value 50p
SYMBOL schottky 704 208 M180
WINDOW 0 24 72 Left 0
WINDOW 3 24 0 Left 0
SYMATTR InstName D1
SYMATTR Value 1N5817
SYMATTR Description Diode
SYMATTR Type diode
SYMBOL cap 1024 144 R0
WINDOW 39 24 85 Left 0
SYMATTR Value 10µ
SYMATTR InstName C6
SYMBOL schottky 352 32 R0
SYMATTR InstName D2
SYMATTR Value CMDSH2-3
SYMATTR Description Diode
SYMATTR Type diode
SYMBOL res 352 352 R0
SYMATTR InstName R6
SYMATTR Value 10
SYMBOL cap 416 384 R270
WINDOW 0 26 57 VTop 0
WINDOW 3 13 56 VBottom 0
SYMATTR InstName C7
SYMATTR Value 1µ
SYMBOL cap 416 464 R270
WINDOW 0 26 57 VTop 0
WINDOW 3 11 60 VBottom 0
SYMATTR InstName C8
SYMATTR Value 10µ
SYMBOL cap -320 32 R0
SYMATTR InstName C9
SYMATTR Value 22µ
SYMBOL cap -240 32 R0
SYMATTR InstName C10
SYMATTR Value 100µ
SYMBOL res 1120 112 R0
SYMATTR InstName RLoad
SYMATTR Value 4.8
SYMBOL cap 736 336 R0
SYMATTR InstName C11
SYMATTR Value 500p
SYMBOL res 736 432 R0
SYMATTR InstName R7
SYMATTR Value 20K
TEXT 912 704 Left 0 !.tran 5m startup
TEXT -360 720 Left 0 ;Note:\n  If the simulation model is not found please update with the "Sync Release" command from the "Tools" menu.\n  It remains the customer's responsibility to verify proper and reliable operation in the actual application.\n  Component substitution and printed circuit board layout may significantly affect circuit performance or reliability\n  Contact your local sales representative for assistance. This circuit is distributed to customers only for use with LTC parts\n  Copyright © 2011 Linear Technology Inc. All rights reserved.
TEXT 328 -48 Bottom 0 ;LTC3703 - 100V Synchronous Switching Regulator Controller\n12V to 24V @ 5A Synchronous Boost Converter\nInput: 10V-15V     Output: 24V @ 5A
