Version 4
SHEET 1 2184 704
WIRE -208 -96 -304 -96
WIRE -112 -96 -208 -96
WIRE 80 -96 -112 -96
WIRE 352 -96 80 -96
WIRE 464 -96 400 -96
WIRE 560 -96 528 -96
WIRE 624 -96 560 -96
WIRE 736 -96 624 -96
WIRE -304 -80 -304 -96
WIRE -208 -80 -208 -96
WIRE 624 -80 624 -96
WIRE 736 -80 736 -96
WIRE 352 -64 352 -96
WIRE 400 -64 400 -96
WIRE 80 -32 80 -96
WIRE -304 16 -304 0
WIRE -208 16 -208 -16
WIRE 624 16 624 -16
WIRE 736 16 736 0
WIRE 400 32 400 16
WIRE -112 64 -112 -96
WIRE 0 80 -16 80
WIRE 80 80 80 48
WIRE 80 80 64 80
WIRE 464 80 80 80
WIRE 560 80 560 -96
WIRE 560 80 528 80
WIRE 352 112 352 16
WIRE 80 144 80 80
WIRE -208 192 -224 192
WIRE -112 192 -112 144
WIRE -112 192 -128 192
WIRE -64 192 -112 192
WIRE 304 192 224 192
WIRE -144 272 -160 272
WIRE -64 272 -80 272
WIRE 240 272 224 272
WIRE 352 272 352 208
WIRE 352 272 320 272
WIRE 560 304 560 80
WIRE -208 352 -224 352
WIRE -64 352 -128 352
WIRE 240 352 224 352
WIRE 352 352 352 272
WIRE 352 352 320 352
WIRE 368 352 352 352
WIRE 464 352 448 352
WIRE -240 432 -256 432
WIRE -160 432 -176 432
WIRE -64 432 -80 432
WIRE 560 432 560 384
WIRE 560 432 224 432
WIRE 592 432 560 432
WIRE 688 432 672 432
WIRE 80 480 80 464
FLAG 80 480 0
FLAG 464 352 0
FLAG -304 16 0
FLAG 400 32 0
FLAG 624 16 0
FLAG 736 16 0
FLAG -256 432 0
FLAG 736 -96 OUT
FLAG 688 432 0
FLAG -16 80 0
FLAG -304 -96 IN
FLAG -224 192 0
FLAG -224 352 0
FLAG -160 272 0
FLAG -208 16 0
SYMBOL ind2 336 -80 R0
WINDOW 0 -5 33 Right 2
WINDOW 3 -2 77 Right 2
SYMATTR InstName L1
SYMATTR Value 76µ
SYMATTR Type ind
SYMATTR SpiceLine Ipk=3.0 Rser=0.01 Cpar=1pF
SYMBOL ind2 416 32 R180
WINDOW 0 -3 80 Right 2
WINDOW 3 -3 37 Right 2
SYMATTR InstName L2
SYMATTR Value 1µ
SYMATTR Type ind
SYMATTR SpiceLine Ipk=20 Rser=1m Cpar=2pF
SYMBOL nmos 304 112 R0
WINDOW 0 46 29 Left 2
SYMATTR InstName Q1
SYMATTR Value Si4848DY
SYMBOL res 352 368 R270
WINDOW 0 32 56 VTop 2
WINDOW 3 0 56 VBottom 2
SYMATTR InstName R1
SYMATTR Value 68m
SYMBOL res 64 -48 R0
SYMATTR InstName R2
SYMATTR Value 100K
SYMATTR SpiceLine tol=5 pwr=1
SYMBOL schottky 464 -80 R270
WINDOW 0 32 32 VTop 2
WINDOW 3 0 32 VBottom 2
SYMATTR InstName D1
SYMATTR Value 1N5817
SYMATTR Description Diode
SYMATTR Type diode
SYMBOL res 544 288 R0
SYMATTR InstName R3
SYMATTR Value 71.5K
SYMBOL res 576 448 R270
WINDOW 0 32 56 VTop 2
WINDOW 3 0 56 VBottom 2
SYMATTR InstName R4
SYMATTR Value 13.7K
SYMBOL cap 608 -80 R0
WINDOW 3 37 32 Left 2
WINDOW 40 24 56 Left 2
SYMATTR Value 100µ
SYMATTR SpiceLine2 x3
SYMATTR InstName C1
SYMATTR SpiceLine Rser=10m
SYMBOL cap 64 64 R90
WINDOW 0 0 32 VBottom 2
WINDOW 3 32 32 VTop 2
SYMATTR InstName C2
SYMATTR Value 22µ
SYMATTR SpiceLine Rser=0.001
SYMBOL res -64 416 R90
WINDOW 0 0 56 VBottom 2
WINDOW 3 32 56 VTop 2
SYMATTR InstName R5
SYMATTR Value 20K
SYMBOL cap -176 416 R90
WINDOW 0 0 32 VBottom 2
WINDOW 3 32 32 VTop 2
SYMATTR InstName C3
SYMATTR Value 470p
SYMBOL voltage -304 -96 R0
WINDOW 123 0 0 Left 2
WINDOW 39 0 0 Left 2
SYMATTR InstName V1
SYMATTR Value 48
SYMBOL PowerProducts\\LTC3805 80 304 R0
SYMATTR InstName U1
SYMBOL res -128 48 R0
SYMATTR InstName R7
SYMATTR Value 221K
SYMBOL res -112 176 R90
WINDOW 0 0 56 VBottom 2
WINDOW 3 32 56 VTop 2
SYMATTR InstName R8
SYMATTR Value 8.66K
SYMBOL res -112 336 R90
WINDOW 0 0 56 VBottom 2
WINDOW 3 32 56 VTop 2
SYMATTR InstName R9
SYMATTR Value 118K
SYMBOL cap -80 256 R90
WINDOW 0 0 32 VBottom 2
WINDOW 3 32 32 VTop 2
SYMATTR InstName C4
SYMATTR Value .001µ
SYMBOL schottky 528 64 R90
WINDOW 0 0 32 VBottom 2
WINDOW 3 32 32 VTop 2
SYMATTR InstName D2
SYMATTR Value 1N5817
SYMATTR Description Diode
SYMATTR Type diode
SYMBOL cap -224 -80 R0
WINDOW 3 37 33 Left 2
WINDOW 39 25 59 Left 2
SYMATTR Value 2.2µ
SYMATTR SpiceLine x2
SYMATTR InstName C5
SYMBOL res 336 256 R90
WINDOW 0 0 56 VBottom 2
WINDOW 3 32 56 VTop 2
SYMATTR InstName R10
SYMATTR Value 1.33K
SYMBOL res 336 336 R90
WINDOW 0 0 56 VBottom 2
WINDOW 3 32 56 VTop 2
SYMATTR InstName R11
SYMATTR Value 3K
SYMBOL res 720 -96 R0
SYMATTR InstName Rload
SYMATTR Value 2.5
TEXT 376 -104 Bottom 2 !K1 L1 L2 1
TEXT 336 464 Left 2 !.tran 530m startup
TEXT 208 -144 Bottom 2 ;LTC3805 - Adjustable Frequency Current Mode Flyback DC/DC Controller\nNonisolated Telecom Flyback Converter\nInput: 36V to 72V     Output: 5V @ 2A (Fsw: 200kHz)
TEXT -488 496 Left 2 ;Note:\n  To reduce simulation time a smaller value for the SS capacitor has been used; please refer to the datasheet for typical values.\n  If the simulation model is not found please update with the "Sync Release" command from the "Tools" menu.\n  It remains the customer's responsibility to verify proper and reliable operation in the actual application.\n  Component substitution and printed circuit board layout may significantly affect circuit performance or reliability.\n  Contact your local sales representative for assistance. This circuit is distributed to customers only for use with LTC parts.\n  Copyright © 2012 Linear Technology Inc. All rights reserved.
