Version 4
SHEET 1 1216 680
WIRE -240 64 -320 64
WIRE -128 64 -240 64
WIRE -48 64 -128 64
WIRE 64 64 -48 64
WIRE 96 64 64 64
WIRE 192 64 176 64
WIRE -320 80 -320 64
WIRE -240 80 -240 64
WIRE -128 80 -128 64
WIRE 64 112 64 64
WIRE 192 112 192 64
WIRE -128 160 -128 144
WIRE -320 176 -320 160
WIRE -240 192 -240 144
WIRE -224 192 -240 192
WIRE -16 192 -144 192
WIRE 336 192 272 192
WIRE 416 192 336 192
WIRE 336 208 336 192
WIRE 416 208 416 192
WIRE -48 304 -48 64
WIRE -16 304 -48 304
WIRE 304 304 272 304
WIRE 336 304 336 272
WIRE 416 304 416 288
WIRE 64 400 64 384
WIRE 192 400 192 384
WIRE -48 432 -48 304
WIRE 304 432 304 304
WIRE 304 432 -48 432
FLAG -320 176 0
FLAG 64 400 0
FLAG 336 304 0
FLAG 416 304 0
FLAG 192 400 0
FLAG 416 192 Output
FLAG -320 64 IN
FLAG -128 160 0
SYMBOL ind 80 80 R270
WINDOW 0 32 56 VTop 2
WINDOW 3 5 56 VBottom 2
SYMATTR InstName L1
SYMATTR Value 4.7µ
SYMATTR SpiceLine Rser=50m Rpar=5K
SYMBOL voltage -320 64 R0
WINDOW 0 20 15 Left 2
WINDOW 3 25 97 Left 2
SYMATTR InstName V1
SYMATTR Value 3.6
SYMBOL cap 320 208 R0
SYMATTR InstName C1
SYMATTR Value 10µ
SYMBOL res 400 192 R0
SYMATTR InstName Rload
SYMATTR Value 10
SYMBOL PowerProducts\\LTC3529 128 240 R0
SYMATTR InstName U1
SYMBOL LED -256 80 R0
SYMATTR InstName D1
SYMBOL res -128 176 R90
WINDOW 0 0 56 VBottom 2
WINDOW 3 32 56 VTop 2
SYMATTR InstName R1
SYMATTR Value 330
SYMBOL cap -144 80 R0
SYMATTR InstName C2
SYMATTR Value 4.7µ
TEXT 344 400 Left 2 !.tran 800u startup
TEXT 224 56 Left 2 ;Connect RST to Vin for Auto Restart\nConnect RST to GND for Latch-Off
TEXT 336 192 Bottom 2 ;5V
TEXT 136 8 Bottom 2 ;LTC3529 - 1.5A, 1.5MHz Step-Up DC/DC Converter\nInput: 1.8V to 5V Outout: 5V @ 500mA
TEXT -440 448 Left 2 ;Note:\n  If the simulation model is not found please update with the "Sync Release" command from the "Tools" menu.\n  It remains the customer's responsibility to verify proper and reliable operation in the actual application.\n  Component substitution and printed circuit board layout may significantly affect circuit performance or reliability.\n  Contact your local sales representative for assistance. This circuit is distributed to customers only for use with LTC parts.\n  Copyright © 2011 Linear Technology Inc. All rights reserved.
