Version 4
SHEET 1 928 680
WIRE -576 -384 -960 -384
WIRE -464 -384 -576 -384
WIRE -160 -384 -464 -384
WIRE -576 -368 -576 -384
WIRE -464 -368 -464 -384
WIRE -160 -352 -160 -384
WIRE -128 -352 -160 -352
WIRE 192 -352 128 -352
WIRE 240 -352 192 -352
WIRE 336 -352 240 -352
WIRE -960 -336 -960 -384
WIRE 336 -336 336 -352
WIRE 240 -320 240 -352
WIRE -576 -288 -576 -304
WIRE -128 -288 -368 -288
WIRE -464 -272 -464 -288
WIRE -368 -272 -368 -288
WIRE -368 -272 -464 -272
WIRE -464 -256 -464 -272
WIRE -960 -240 -960 -256
WIRE 240 -240 240 -256
WIRE 336 -240 336 -256
WIRE -224 -224 -240 -224
WIRE -128 -224 -144 -224
WIRE -464 -160 -464 -176
WIRE -368 -160 -464 -160
WIRE -320 -160 -336 -160
WIRE -128 -160 -240 -160
WIRE -464 -144 -464 -160
WIRE -368 -96 -368 -160
WIRE -128 -96 -368 -96
WIRE -464 -48 -464 -64
WIRE -128 -32 -160 -32
WIRE 192 -32 192 -352
WIRE 192 -32 128 -32
WIRE -544 -16 -624 -16
WIRE -160 -16 -160 -32
WIRE -160 -16 -544 -16
WIRE 192 -16 192 -32
WIRE -624 0 -624 -16
WIRE -544 16 -544 -16
WIRE 0 48 0 32
WIRE 192 64 192 48
WIRE -624 96 -624 80
WIRE -544 96 -544 80
FLAG -464 -48 0
FLAG -336 -160 0
FLAG -240 -224 0
FLAG 0 48 0
FLAG -960 -240 0
FLAG -576 -288 0
FLAG -960 -384 IN1
FLAG -624 96 0
FLAG -544 96 0
FLAG -624 -16 IN2
FLAG 336 -352 OUT
FLAG 336 -240 0
FLAG 240 -240 0
FLAG 192 64 0
SYMBOL LTC4415 0 -208 R0
SYMATTR InstName U1
SYMBOL res -480 -272 M180
WINDOW 0 36 76 Left 2
WINDOW 3 36 40 Left 2
SYMATTR InstName R1
SYMATTR Value 100K
SYMBOL res -480 -160 M180
WINDOW 0 36 76 Left 2
WINDOW 3 36 40 Left 2
SYMATTR InstName R2
SYMATTR Value 2K
SYMBOL res -480 -48 M180
WINDOW 0 36 76 Left 2
WINDOW 3 36 40 Left 2
SYMATTR InstName R3
SYMATTR Value 21.5K
SYMBOL res -240 -208 R270
WINDOW 0 32 56 VTop 2
WINDOW 3 0 56 VBottom 2
SYMATTR InstName R4
SYMATTR Value 124
SYMBOL res -336 -144 R270
WINDOW 0 32 56 VTop 2
WINDOW 3 0 56 VBottom 2
SYMATTR InstName R5
SYMATTR Value 124
SYMBOL voltage -960 -352 R0
WINDOW 123 24 111 Left 2
SYMATTR Value PWL(0 5 300u 5 500u 0 700u 0 800u 5)
SYMATTR SpiceLine Rser=0
SYMATTR InstName V1
SYMBOL cap -592 -368 R0
SYMATTR InstName C1
SYMATTR Value 10µ
SYMBOL cap -560 16 R0
SYMATTR InstName C2
SYMATTR Value 10µ
SYMBOL cap 224 -320 R0
SYMATTR InstName C3
SYMATTR Value 10µ
SYMBOL cap 176 -16 R0
SYMATTR InstName C4
SYMATTR Value 10µ
SYMBOL battery -624 -16 R0
WINDOW 123 0 0 Left 2
WINDOW 39 24 132 Left 2
SYMATTR InstName V2
SYMATTR Value 3.7
SYMBOL res 320 -352 R0
SYMATTR InstName R6
SYMATTR Value 1.2
TEXT 0 -440 Bottom 2 ;LTC4415 - Dual 4A Ideal Diodes with Adjustable Current Limit\nInput Supply Prioritizer\nInput: 1.7V-5.5V     Output: Up to 4A
TEXT -720 120 Left 2 ;Note:\n  If the simulation model is not found please update with the "Sync Release" command from the "Tools" menu.\n  It remains the customer's responsibility to verify proper and reliable operation in the actual application.\n  Component substitution and printed circuit board layout may significantly affect circuit performance or reliability\n  Contact your local sales representative for assistance. This circuit is distributed to customers only for use with LTC parts\n  Copyright © 2014 Linear Technology Inc. All rights reserved.
TEXT 304 56 Left 2 !.tran 1m
