Version 4
SHEET 1 1304 880
WIRE -304 -48 -656 -48
WIRE -96 -48 -304 -48
WIRE 304 -48 -96 -48
WIRE 320 -48 304 -48
WIRE 480 -48 416 -48
WIRE 608 -48 576 -48
WIRE 656 -48 608 -48
WIRE 752 -48 656 -48
WIRE -656 -32 -656 -48
WIRE -304 -32 -304 -48
WIRE 656 -32 656 -48
WIRE 752 -32 752 -48
WIRE -96 -16 -96 -48
WIRE 400 16 400 0
WIRE 448 16 400 16
WIRE 496 16 496 0
WIRE 496 16 448 16
WIRE -656 64 -656 48
WIRE -304 64 -304 32
WIRE 656 64 656 32
WIRE 752 64 752 48
WIRE -208 112 -224 112
WIRE -96 112 -96 64
WIRE -96 112 -128 112
WIRE 16 112 -96 112
WIRE 304 112 304 -48
WIRE 304 112 272 112
WIRE -96 176 -96 112
WIRE 16 192 0 192
WIRE 448 192 448 16
WIRE 448 192 272 192
WIRE 16 272 0 272
WIRE 608 272 608 -48
WIRE 608 272 272 272
WIRE -192 352 -496 352
WIRE -96 352 -96 256
WIRE 16 352 -96 352
WIRE 432 352 272 352
WIRE -496 368 -496 352
WIRE 304 432 272 432
WIRE 432 448 432 352
WIRE -496 464 -496 448
WIRE -192 496 -192 352
WIRE 304 496 304 432
WIRE 304 496 -192 496
WIRE 352 496 304 496
WIRE 608 496 608 272
WIRE 608 496 448 496
FLAG -656 64 0
FLAG -496 464 0
FLAG 0 272 0
FLAG 752 64 0
FLAG 656 64 0
FLAG -224 112 0
FLAG 0 192 0
FLAG 752 -48 OUT
FLAG -656 -48 IN
FLAG -304 64 0
SYMBOL voltage -656 -48 R0
WINDOW 123 0 0 Left 2
WINDOW 39 0 0 Left 2
SYMATTR Value PWL(0 9 1 14 2 14 3 9)
SYMATTR InstName V1
SYMBOL pmos 320 0 R270
WINDOW 0 56 53 VTop 2
WINDOW 3 -20 41 VBottom 2
SYMATTR InstName Q1
SYMATTR Value IRF7210
SYMBOL pmos 576 0 M270
WINDOW 0 55 35 VTop 2
WINDOW 3 -6 26 VBottom 2
SYMATTR InstName Q2
SYMATTR Value IRF7210
SYMBOL res -112 96 R90
WINDOW 0 0 56 VBottom 2
WINDOW 3 32 56 VTop 2
SYMATTR InstName R1
SYMATTR Value 24.9K
SYMBOL res -112 160 R0
SYMATTR InstName R2
SYMATTR Value 187K
SYMBOL res -112 -32 R0
SYMATTR InstName R3
SYMATTR Value 221K
SYMBOL pmos 352 448 M90
WINDOW 0 3 50 VBottom 2
WINDOW 3 53 47 VTop 2
SYMATTR InstName Q3
SYMATTR Value IRF7210
SYMBOL voltage -496 352 R0
WINDOW 123 0 0 Left 2
WINDOW 39 0 0 Left 2
SYMATTR InstName V2
SYMATTR Value 10.8
SYMBOL res 736 -48 R0
SYMATTR InstName Rload
SYMATTR Value 100
SYMBOL cap 640 -32 R0
SYMATTR InstName C1
SYMATTR Value 10µ
SYMBOL SpecialFunctions\\LTC4416 144 272 R0
SYMATTR InstName U1
SYMBOL cap -320 -32 R0
SYMATTR InstName C2
SYMATTR Value 2µ
TEXT 648 472 Left 2 !.tran 3.2 startup
TEXT -544 -56 Bottom 2 ;Primary Supply
TEXT -384 344 Bottom 2 ;Backup Supply
TEXT 120 -96 Bottom 2 ;LTC4416 - 36V, Low Loss Dual PowerPath Controllers for Large PFETs\nAutomatic PowerPath Switchover\nPrimary Supply: 12V (Fail), 13.5 (Restore)     Backup Supply: 10.8V
TEXT -496 536 Left 2 ;Notes:\n  If the simulation model is not found please update with the "Sync Release" command from the "Tools" menu.\n  It remains the customer's responsibility to verify proper and reliable operation in the actual application.\n  Component substitution and printed circuit board layout may significantly affect circuit performance or reliability.\n  Contact your local sales representative for assistance. This circuit is distributed to customers only for use with LTC parts.\n  Copyright © 2013 Linear Technology Inc. All rights reserved.
