Version 4
SHEET 1 9052 3716
WIRE 5136 -1520 5136 -1536
WIRE 5232 -1520 5136 -1520
WIRE 5696 -1520 5232 -1520
WIRE 6016 -1520 5696 -1520
WIRE 6112 -1520 6016 -1520
WIRE 6256 -1520 6112 -1520
WIRE 5696 -1504 5696 -1520
WIRE 6112 -1456 6112 -1520
WIRE 6256 -1456 6256 -1520
WIRE 5232 -1440 5232 -1520
WIRE 6016 -1440 6016 -1520
WIRE 6432 -1440 6304 -1440
WIRE 6432 -1424 6432 -1440
WIRE 5696 -1408 5696 -1424
WIRE 5696 -1408 5328 -1408
WIRE 5856 -1408 5696 -1408
WIRE 5952 -1408 5936 -1408
WIRE 5696 -1392 5696 -1408
WIRE 6352 -1392 6304 -1392
WIRE 5232 -1344 5232 -1360
WIRE 5408 -1344 5232 -1344
WIRE 5520 -1344 5408 -1344
WIRE 5552 -1344 5520 -1344
WIRE 5952 -1344 5952 -1408
WIRE 5952 -1344 5840 -1344
WIRE 6432 -1328 6432 -1344
WIRE 5136 -1312 5136 -1520
WIRE 5408 -1296 5408 -1344
WIRE 5328 -1264 5328 -1408
WIRE 5520 -1264 5520 -1344
WIRE 5552 -1264 5520 -1264
WIRE 5856 -1264 5840 -1264
WIRE 6016 -1264 6016 -1376
WIRE 6016 -1264 5936 -1264
WIRE 6112 -1264 6112 -1376
WIRE 6112 -1264 6016 -1264
WIRE 6256 -1264 6256 -1376
WIRE 6256 -1264 6112 -1264
WIRE 5232 -1216 5232 -1344
WIRE 5552 -1184 5456 -1184
WIRE 5888 -1184 5840 -1184
WIRE 5968 -1184 5888 -1184
WIRE 5552 -1104 5488 -1104
WIRE 6016 -1104 6016 -1168
WIRE 6016 -1104 5840 -1104
WIRE 5488 -1088 5488 -1104
WIRE 5888 -1088 5888 -1120
WIRE 5136 -1008 5136 -1232
WIRE 5232 -1008 5232 -1136
WIRE 5232 -1008 5136 -1008
WIRE 5328 -1008 5328 -1200
WIRE 5328 -1008 5232 -1008
WIRE 5408 -1008 5408 -1232
WIRE 5408 -1008 5328 -1008
WIRE 5456 -1008 5456 -1120
WIRE 5456 -1008 5408 -1008
WIRE 5488 -1008 5488 -1024
WIRE 5488 -1008 5456 -1008
WIRE 5696 -1008 5696 -1056
WIRE 5696 -1008 5488 -1008
WIRE 5888 -1008 5696 -1008
WIRE 6016 -1008 6016 -1024
WIRE 6016 -1008 5888 -1008
FLAG 6256 -1264 OUT
FLAG 5136 -1536 0
FLAG 5136 -1520 RTN
FLAG 5136 -1008 IN
FLAG 6352 -1392 0
FLAG 6432 -1328 0
SYMBOL cap 5440 -1120 M180
WINDOW 0 31 47 Left 2
WINDOW 3 24 8 Left 2
SYMATTR InstName C1
SYMATTR Value .33µ
SYMBOL res 5952 -1424 R90
WINDOW 0 0 56 VBottom 2
WINDOW 3 32 56 VTop 2
SYMATTR InstName R1
SYMATTR Value 5.1K
SYMBOL cap 5472 -1088 R0
WINDOW 0 31 16 Left 2
WINDOW 3 30 51 Left 2
SYMATTR InstName C2
SYMATTR Value .068µ
SYMBOL res 5216 -1456 R0
SYMATTR InstName R2
SYMATTR Value 402K
SYMBOL res 5216 -1232 R0
SYMATTR InstName R3
SYMATTR Value 32.4K
SYMBOL cap 5872 -1184 R0
WINDOW 0 33 22 Left 2
SYMATTR InstName C3
SYMATTR Value .01µ
SYMBOL res 5680 -1520 R0
SYMATTR InstName R4
SYMATTR Value 5K
SYMBOL cap 5312 -1264 R0
WINDOW 3 26 59 Left 2
SYMATTR Value 1µ
SYMATTR InstName C4
SYMBOL cap 6000 -1440 R0
SYMATTR InstName C5
SYMATTR Value 100µ
SYMBOL res 6096 -1472 R0
SYMATTR InstName Rload
SYMATTR Value 20
SYMBOL cap 5392 -1296 R0
SYMATTR Value .01µ
SYMATTR InstName C6
SYMBOL res 5952 -1280 R90
WINDOW 0 0 56 VBottom 2
WINDOW 3 32 56 VTop 2
SYMATTR InstName R6
SYMATTR Value 1Meg
SYMBOL res 6000 -1120 R0
SYMATTR InstName R7
SYMATTR Value 20m
SYMBOL voltage 5136 -1328 R0
SYMATTR InstName V1
SYMATTR Value 48
SYMBOL res 5872 -1104 R0
WINDOW 3 36 71 Left 2
SYMATTR Value 10
SYMATTR InstName R8
SYMBOL nmos 5968 -1264 R0
SYMATTR InstName Q1
SYMATTR Value IRF530
SYMBOL PowerProducts\\LTC4252C-1 5696 -1216 R0
SYMATTR InstName U1
SYMBOL SW 6256 -1360 R180
WINDOW 0 -15 106 Right 2
WINDOW 3 -8 9 Right 2
SYMATTR InstName S1
SYMATTR Value SHORT
SYMBOL voltage 6432 -1440 R0
WINDOW 123 24 138 Left 2
WINDOW 39 24 117 Left 2
SYMATTR Value PWL(.8 0 +1u 1 +.1 1 +.1m 0)
SYMATTR InstName V2
TEXT 6112 -1016 Left 2 !.tran 1 startup
TEXT 5696 -1536 Bottom 2 ;LTC4252C-1 - Negative Voltage Hot Swap Controller\n-48V/2.5A Hot Swap Controller
TEXT 5032 -968 Left 2 ;Note:\n  If the simulation model is not found please update with the "Sync Release" command from the "Tools" menu.\n  It remains the customer's responsibility to verify proper and reliable operation in the actual application.\n  Component substitution and printed circuit board layout may significantly affect circuit performance or reliability.\n  Contact your local sales representative for assistance. This circuit is distributed to customers only for use with LTC parts.\n  Copyright © 2014 Linear Technology Inc. All rights reserved.
TEXT 6112 -1048 Left 2 !.model SHORT SW(Ron=10m Roff=1G Vt=.5 Vh=-.4)
