Version 4
SHEET 1 1592 680
WIRE 144 -128 -416 -128
WIRE 256 -128 144 -128
WIRE 480 -128 352 -128
WIRE 592 -128 480 -128
WIRE 688 -128 592 -128
WIRE 800 -128 688 -128
WIRE -416 -112 -416 -128
WIRE 144 -112 144 -128
WIRE 688 -112 688 -128
WIRE 800 -112 800 -128
WIRE 336 -48 336 -80
WIRE -416 -16 -416 -32
WIRE 688 -16 688 -48
WIRE 800 -16 800 -32
WIRE 144 0 144 -32
WIRE 144 0 -64 0
WIRE 144 16 144 0
WIRE -64 80 -64 0
WIRE 0 80 -64 80
WIRE 336 80 336 32
WIRE 336 80 288 80
WIRE 352 80 336 80
WIRE 432 80 416 80
WIRE 592 80 592 -128
WIRE 0 128 -64 128
WIRE 480 128 480 -128
WIRE 480 128 288 128
WIRE -64 160 -64 128
WIRE 592 176 592 160
WIRE 592 176 288 176
WIRE 480 192 480 128
WIRE 592 192 592 176
WIRE -64 256 -64 224
WIRE 96 256 96 224
WIRE 96 256 -64 256
WIRE 192 256 192 224
WIRE 192 256 96 256
WIRE 480 256 192 256
WIRE 96 272 96 256
WIRE 592 288 592 272
WIRE 96 368 96 352
FLAG 96 368 0
FLAG -416 -16 0
FLAG 432 80 0
FLAG 592 288 0
FLAG 688 -16 0
FLAG 800 -16 0
FLAG -416 -128 IN
FLAG 800 -128 OUT
SYMBOL cap -80 160 R0
SYMATTR InstName C1
SYMATTR Value 3.3n
SYMBOL nmos 256 -80 R270
WINDOW 0 82 47 VTop 2
WINDOW 3 54 48 VTop 2
SYMATTR InstName M1
SYMATTR Value HUFA76645
SYMBOL voltage -416 -128 R0
WINDOW 123 22 118 Left 2
WINDOW 39 22 140 Left 2
SYMATTR Value2 +.7m 125 +.7m 12
SYMATTR InstName V1
SYMATTR Value PWL(0 0 +20u 12 +10m 12
SYMATTR SpiceLine +.1 12 +5m 125 +.2 12)
SYMBOL cap 672 -112 R0
SYMATTR InstName Cload
SYMATTR Value 220µ
SYMBOL cap 352 96 R270
WINDOW 0 32 32 VTop 2
WINDOW 3 0 32 VBottom 2
SYMATTR InstName C3
SYMATTR Value 2n
SYMBOL res 576 64 R0
SYMATTR InstName R1
SYMATTR Value 12.4K
SYMBOL res 80 256 R0
SYMATTR InstName R2
SYMATTR Value 1.91K
SYMBOL res 320 -64 R0
SYMATTR InstName R3
SYMATTR Value 10
SYMBOL res 576 176 R0
SYMATTR InstName R4
SYMATTR Value 169K
SYMBOL res 784 -128 R0
SYMATTR InstName Rload
SYMATTR Value 6
SYMBOL res 128 -128 R0
SYMATTR InstName R6
SYMATTR Value 29.4K
SYMBOL cap 464 192 R0
SYMATTR InstName C4
SYMATTR Value 0.47µ
SYMBOL LTC4366-2 144 160 R0
SYMATTR InstName U1
TEXT 416 328 Left 2 !.tran 10
TEXT 168 -192 Bottom 2 ;LTC4366-2 - High Voltage Surge Stopper\nSurge Protected Automotive 12V Supply\nInput 9V to 100V     Output: 4A, 18V Clamp, 9s FET Cool Down Timer on OV Fault
TEXT -432 376 Left 2 ;Note:\n  If the simulation model is not found please update with the "Sync Release" command from the "Tools" menu.\n  It remains the customer's responsibility to verify proper and reliable operation in the actual application.\n  Component substitution and printed circuit board layout may significantly affect circuit performance or reliability.\n  Contact your local sales representative for assistance. This circuit is distributed to customers only for use with LTC parts.\n  Copyright © 2014 Linear Technology Inc. All rights reserved.
