Version 4
SHEET 1 1592 680
WIRE 80 16 -48 16
WIRE 416 16 368 16
WIRE 528 16 416 16
WIRE 624 16 528 16
WIRE 768 16 624 16
WIRE -48 32 -48 16
WIRE 416 32 416 16
WIRE 528 32 528 16
WIRE 624 32 624 16
WIRE 768 32 768 16
WIRE 928 48 816 48
WIRE 80 80 32 80
WIRE 928 80 928 48
WIRE -48 128 -48 112
WIRE 528 128 528 96
WIRE 624 128 624 112
WIRE 768 128 768 112
WIRE 80 144 32 144
WIRE 416 144 416 112
WIRE 416 144 368 144
WIRE 928 176 928 160
WIRE 384 208 368 208
WIRE 480 208 464 208
WIRE 432 272 368 272
WIRE 432 336 432 272
WIRE 432 336 368 336
WIRE 432 352 432 336
WIRE 224 416 224 384
WIRE 432 432 432 416
FLAG 432 432 0
FLAG 224 416 0
FLAG 480 208 0
FLAG -48 128 0
FLAG 528 128 0
FLAG 768 128 0
FLAG 816 96 0
FLAG 928 176 0
FLAG -48 16 IN
FLAG 768 16 OUT
FLAG 32 144 0
FLAG 624 128 0
FLAG 32 80 0
SYMBOL cap 416 352 R0
SYMATTR InstName C1
SYMATTR Value .1µ
SYMBOL voltage -48 16 R0
WINDOW 123 0 0 Left 2
WINDOW 39 0 0 Left 2
SYMATTR InstName V1
SYMATTR Value 12
SYMBOL cap 512 32 R0
SYMATTR InstName C2
SYMATTR Value 330µ
SYMBOL res 368 224 R270
WINDOW 0 32 56 VTop 2
WINDOW 3 0 56 VBottom 2
SYMATTR InstName R1
SYMATTR Value 20K
SYMBOL res 400 16 R0
SYMATTR InstName R2
SYMATTR Value 20K
SYMBOL sw 768 128 R180
WINDOW 0 -23 102 Right 2
WINDOW 3 -26 2 Right 2
SYMATTR InstName S1
SYMATTR Value SHORT
SYMBOL voltage 928 64 R0
WINDOW 123 0 0 Left 2
WINDOW 39 0 0 Left 2
SYMATTR InstName V2
SYMATTR Value PULSE(0 1 240m 1m 1m 10m)
SYMBOL LTC4219-12 224 176 R0
SYMATTR InstName U1
SYMBOL res 608 16 R0
SYMATTR InstName Rload
SYMATTR Value 3
TEXT 552 368 Left 2 !.model SHORT SW(Ron=10m Roff=1K Vt=.5 Vh=-.4)
TEXT 552 400 Left 2 !.tran 400m startup
TEXT 416 -48 Bottom 2 ;LTC4219 - 5A Integrated Hot Swap Controller\nSingle Channel 12V, 5A Hot Swap Controller
TEXT -88 448 Left 2 ;Note:\n  If the simulation model is not found please update with the "Sync Release" command from the "Tools" menu.\n  It remains the customer's responsibility to verify proper and reliable operation in the actual application.\n  Component substitution and printed circuit board layout may significantly affect circuit performance or reliability.\n  Contact your local sales representative for assistance. This circuit is distributed to customers only for use with LTC parts.\n  Copyright © 2014 Linear Technology Inc. All rights reserved.
