Version 4
SHEET 1 1636 680
WIRE 128 -352 128 -368
WIRE -176 -304 -256 -304
WIRE -16 -304 -176 -304
WIRE 608 -304 272 -304
WIRE -256 -288 -256 -304
WIRE -176 -240 -176 -304
WIRE -160 -240 -176 -240
WIRE -64 -240 -80 -240
WIRE -16 -240 -64 -240
WIRE 448 -240 272 -240
WIRE 496 -240 448 -240
WIRE 608 -240 608 -304
WIRE 608 -240 576 -240
WIRE 704 -240 608 -240
WIRE 800 -240 704 -240
WIRE 928 -240 800 -240
WIRE 448 -224 448 -240
WIRE 608 -224 608 -240
WIRE 704 -224 704 -240
WIRE 800 -224 800 -240
WIRE 928 -224 928 -240
WIRE 1088 -208 976 -208
WIRE -256 -192 -256 -208
WIRE 1088 -192 1088 -208
WIRE -16 -176 -32 -176
WIRE 416 -176 272 -176
WIRE 448 -128 448 -144
WIRE 704 -128 704 -160
WIRE 800 -128 800 -144
WIRE 928 -128 928 -144
WIRE -64 -112 -64 -240
WIRE -16 -112 -64 -112
WIRE 288 -112 272 -112
WIRE 384 -112 368 -112
WIRE 416 -96 416 -176
WIRE 608 -96 608 -144
WIRE 608 -96 416 -96
WIRE 1088 -96 1088 -112
WIRE -16 -48 -32 -48
WIRE 304 -48 272 -48
WIRE -16 16 -32 16
WIRE 304 16 304 -48
WIRE 304 16 272 16
WIRE 320 16 304 16
WIRE 400 16 384 16
WIRE 128 80 128 64
FLAG 400 16 0
FLAG 448 -128 0
FLAG -32 -176 0
FLAG 128 80 0
FLAG 384 -112 0
FLAG -256 -192 0
FLAG 704 -128 0
FLAG 928 -128 0
FLAG 976 -160 0
FLAG 1088 -96 0
FLAG 800 -240 OUT
FLAG -256 -304 IN
FLAG 800 -128 0
SYMBOL cap 320 32 R270
WINDOW 0 32 32 VTop 2
WINDOW 3 0 32 VBottom 2
SYMATTR InstName C1
SYMATTR Value .1µ
SYMBOL voltage -256 -304 R0
WINDOW 123 0 0 Left 2
WINDOW 39 0 0 Left 2
SYMATTR InstName V1
SYMATTR Value 12
SYMBOL cap 688 -224 R0
SYMATTR InstName C2
SYMATTR Value 330µ
SYMBOL res 272 -96 R270
WINDOW 0 32 56 VTop 2
WINDOW 3 0 56 VBottom 2
SYMATTR InstName R1
SYMATTR Value 20K
SYMBOL res -176 -224 R270
WINDOW 0 32 56 VTop 2
WINDOW 3 0 56 VBottom 2
SYMATTR InstName R2
SYMATTR Value 20K
SYMBOL res 432 -240 R0
SYMATTR InstName R3
SYMATTR Value 20K
SYMBOL res 592 -256 R90
WINDOW 0 0 56 VBottom 2
WINDOW 3 32 56 VTop 2
SYMATTR InstName R4
SYMATTR Value 150K
SYMBOL res 592 -240 R0
SYMATTR InstName R5
SYMATTR Value 20K
SYMBOL sw 928 -128 R180
WINDOW 0 -23 102 Right 2
WINDOW 3 -26 2 Right 2
SYMATTR InstName S1
SYMATTR Value SHORT
SYMBOL voltage 1088 -208 R0
WINDOW 123 0 0 Left 2
WINDOW 39 0 0 Left 2
SYMATTR InstName V2
SYMATTR Value PULSE(0 1 240m 1m 1m 10m)
SYMBOL LTC4232 128 -144 R0
SYMATTR InstName U1
SYMBOL res 784 -240 R0
SYMATTR InstName Rload
SYMATTR Value 2.4
TEXT 512 16 Left 2 !.model SHORT SW(Ron=10m Roff=1K Vt=.5 Vh=-.4)
TEXT 512 48 Left 2 !.tran 500m startup
TEXT 288 -384 Bottom 2 ;LTC4232 - 5A Integrated Hot Swap Controller\nSingle 12V, 5A Hot Swap Controller with Auto-Retry
TEXT -240 96 Left 2 ;Note:\n  If the simulation model is not found please update with the "Sync Release" command from the "Tools" menu.\n  It remains the customer's responsibility to verify proper and reliable operation in the actual application.\n  Component substitution and printed circuit board layout may significantly affect circuit performance or reliability.\n  Contact your local sales representative for assistance. This circuit is distributed to customers only for use with LTC parts.\n  Copyright © 2014 Linear Technology Inc. All rights reserved.
