Version 4
SHEET 1 9052 3716
WIRE 5328 -1520 5264 -1520
WIRE 5472 -1520 5408 -1520
WIRE 5504 -1520 5472 -1520
WIRE 5600 -1520 5584 -1520
WIRE 5712 -1520 5600 -1520
WIRE 5968 -1520 5808 -1520
WIRE 6032 -1520 5968 -1520
WIRE 6128 -1520 6032 -1520
WIRE 6288 -1520 6128 -1520
WIRE 6032 -1504 6032 -1520
WIRE 6128 -1504 6128 -1520
WIRE 6288 -1504 6288 -1520
WIRE 6464 -1488 6336 -1488
WIRE 6464 -1472 6464 -1488
WIRE 5792 -1440 5792 -1472
WIRE 5808 -1440 5792 -1440
WIRE 5888 -1440 5872 -1440
WIRE 6352 -1440 6336 -1440
WIRE 6032 -1408 6032 -1440
WIRE 6128 -1408 6128 -1424
WIRE 6288 -1408 6288 -1424
WIRE 5792 -1392 5792 -1440
WIRE 6464 -1360 6464 -1392
WIRE 5600 -1344 5600 -1520
WIRE 5648 -1344 5600 -1344
WIRE 5968 -1344 5968 -1520
WIRE 5968 -1344 5936 -1344
WIRE 5472 -1264 5472 -1520
WIRE 5648 -1264 5472 -1264
WIRE 5952 -1184 5936 -1184
WIRE 6096 -1184 6032 -1184
WIRE 6096 -1168 6096 -1184
WIRE 5648 -1120 5600 -1120
WIRE 5264 -1088 5264 -1520
WIRE 6096 -1072 6096 -1088
WIRE 5792 -1040 5792 -1056
WIRE 5264 -992 5264 -1008
FLAG 5792 -1040 0
FLAG 5264 -992 0
FLAG 6096 -1072 0
FLAG 6032 -1408 0
FLAG 6128 -1408 0
FLAG 6352 -1440 0
FLAG 6288 -1408 0
FLAG 6464 -1360 0
FLAG 5600 -1120 0
FLAG 5264 -1520 IN
FLAG 6288 -1520 OUT
FLAG 5888 -1440 0
SYMBOL res 5488 -1504 R270
WINDOW 0 32 56 VTop 0
WINDOW 3 0 56 VBottom 0
SYMATTR InstName R1
SYMATTR Value 25m
SYMBOL cap 6016 -1504 R0
SYMATTR InstName C1
SYMATTR Value 10µ
SYMBOL ind 5312 -1504 R270
WINDOW 0 32 56 VTop 0
WINDOW 3 5 56 VBottom 0
SYMATTR InstName L1
SYMATTR Value 1µ
SYMATTR SpiceLine Rser=150m Rpar=2K
SYMBOL voltage 6096 -1184 R0
WINDOW 123 0 0 Left 0
WINDOW 39 0 0 Left 0
WINDOW 3 13 106 Left 0
SYMATTR Value 5
SYMATTR InstName V1
SYMBOL res 6048 -1200 R90
WINDOW 0 0 56 VBottom 0
WINDOW 3 32 56 VTop 0
SYMATTR InstName R2
SYMATTR Value 1K
SYMBOL nmos 5712 -1472 R270
WINDOW 0 57 43 VTop 0
WINDOW 3 -10 67 VLeft 0
SYMATTR InstName Q1
SYMATTR Value Si4892DY
SYMBOL voltage 5264 -1104 R0
WINDOW 123 24 146 Left 0
WINDOW 39 24 125 Left 0
SYMATTR Value PWL(0us 0V 100m 0 +1us 20V 150m 20V +10u 0 200m 0 +1u -20V 250m -20V +10u 0 400m 0 +1u 5V 800m 5V +1u 20V 900m 20V +10u 5V)
SYMATTR InstName V2
SYMBOL sw 6288 -1408 R180
WINDOW 0 -19 108 Right 0
WINDOW 3 -35 1 Right 0
SYMATTR InstName S1
SYMATTR Value SHORT
SYMBOL voltage 6464 -1488 R0
WINDOW 123 24 146 Left 0
WINDOW 39 24 125 Left 0
SYMATTR Value PWL(0us 0V 1200m 0 +5n 1 1201m 1 +5n 0)
SYMATTR InstName V3
SYMBOL LTC4361-1 5792 -1216 R0
SYMATTR InstName U1
SYMBOL cap 5872 -1456 R90
WINDOW 3 32 32 VTop 0
WINDOW 0 0 32 VBottom 0
SYMATTR Value .0068µ
SYMATTR InstName C2
SYMBOL res 6112 -1520 R0
SYMATTR InstName Rload
SYMATTR Value 10
TEXT 6416 -1072 Left 0 !.tran 1500m startup
TEXT 6104 -1272 Left 0 !.model SHORT SW (Ron=1 Roff=1T Vt=0.5 Vh=-0.4)
TEXT 5288 -936 Left 0 ;Note:\n  If the simulation model is not found please update with the "Sync Release" command from the "Tools" menu.\n  It remains the customer's responsibility to verify proper and reliable operation in the actual application.\n  Component substitution and printed circuit board layout may significantly affect circuit performance or reliability.\n  Contact your local sales representative for assistance. This circuit is distributed to customers only for use with LTC parts.\n  Copyright © 2011 Linear Technology Inc. All rights reserved.
TEXT 5856 -1584 Bottom 0 ;LTC4361 - Overvoltage/Overcurrent Protection Controller\nProtection from Overvoltage and Overcurrent
