Version 4
SHEET 1 1888 680
WIRE 64 -16 -32 -16
WIRE 160 -16 64 -16
WIRE 208 -16 160 -16
WIRE 320 -16 288 -16
WIRE 432 -16 320 -16
WIRE 608 -16 528 -16
WIRE 704 -16 608 -16
WIRE 832 -16 704 -16
WIRE -32 0 -32 -16
WIRE 608 0 608 -16
WIRE 704 0 704 -16
WIRE 832 0 832 -16
WIRE 976 16 880 16
WIRE 976 32 976 16
WIRE 160 48 160 -16
WIRE 320 48 320 -16
WIRE 512 64 512 32
WIRE 912 64 880 64
WIRE -32 96 -32 80
WIRE 608 96 608 64
WIRE 704 96 704 80
WIRE 832 96 832 80
WIRE 976 144 976 112
WIRE 64 160 64 -16
WIRE 112 160 64 160
WIRE 512 160 512 144
WIRE 512 160 368 160
WIRE 512 176 512 160
WIRE 512 272 512 256
WIRE 160 288 160 272
WIRE 320 288 320 272
WIRE 160 368 160 352
WIRE 512 368 512 336
FLAG 320 288 0
FLAG 608 96 0
FLAG 512 368 0
FLAG 160 368 0
FLAG -32 96 0
FLAG 704 -16 OUT
FLAG -32 -16 IN
FLAG 704 96 0
FLAG 832 96 0
FLAG 912 64 0
FLAG 976 144 0
SYMBOL nmos 432 32 R270
WINDOW 0 56 41 VTop 2
WINDOW 3 -14 74 VLeft 2
SYMATTR InstName Q1
SYMATTR Value Si4410DY
SYMBOL cap 592 0 R0
SYMATTR InstName C1
SYMATTR Value 470µ
SYMBOL res 496 48 R0
SYMATTR InstName R1
SYMATTR Value 100
SYMBOL res 496 160 R0
SYMATTR InstName R2
SYMATTR Value 100
SYMBOL cap 496 272 R0
SYMATTR InstName C2
SYMATTR Value .01µ
SYMBOL cap 144 288 R0
SYMATTR InstName C3
SYMATTR Value .22µ
SYMBOL voltage -32 -16 R0
WINDOW 123 0 0 Left 2
WINDOW 39 0 0 Left 2
SYMATTR InstName V1
SYMATTR Value 5
SYMBOL res 304 -32 R90
WINDOW 0 0 56 VBottom 2
WINDOW 3 32 56 VTop 2
SYMATTR InstName R3
SYMATTR Value .01
SYMBOL res 688 -16 R0
SYMATTR InstName Rload
SYMATTR Value 1.25
SYMBOL sw 832 96 R180
WINDOW 0 -16 104 Right 2
WINDOW 3 -18 6 Right 2
SYMATTR InstName S1
SYMATTR Value Short
SYMBOL voltage 976 16 R0
WINDOW 123 0 0 Left 2
WINDOW 39 0 0 Left 2
SYMATTR InstName V2
SYMATTR Value PWL(.1 0 +1m 1 +20m 1 +1m 0)
SYMBOL PowerProducts\\LTC4210-2 240 160 R0
SYMATTR InstName U2
TEXT 616 360 Left 2 !.tran 280m startup
TEXT 480 -56 Bottom 2 ;LTC4210-1 - Hot Swap Controller\nSingle Channel 5V, 4A Hot Swap Controller with Auto Retry
TEXT -40 400 Left 2 ;Note:\n  If the simulation model is not found please update with the "Sync Release" command from the "Tools" menu.\n  It remains the customer's responsibility to verify proper and reliable operation in the actual application.\n  Component substitution and printed circuit board layout may significantly affect circuit performance or reliability.\n  Contact your local sales representative for assistance. This circuit is distributed to customers only for use with LTC parts.\n  Copyright © 2014 Linear Technology Inc. All rights reserved.
TEXT 616 320 Left 2 !.model Short SW(Ron=.1 Roff=100K Vt=.5 Vh=-.4)
