Version 4
SHEET 1 6100 3220
WIRE 3168 928 2912 928
WIRE 3328 928 3168 928
WIRE 3360 928 3328 928
WIRE 3696 928 3648 928
WIRE 3872 928 3696 928
WIRE 4000 928 3872 928
WIRE 2912 944 2912 928
WIRE 3872 944 3872 928
WIRE 4000 944 4000 928
WIRE 3168 960 3168 928
WIRE 4064 960 4048 960
WIRE 4112 1008 4048 1008
WIRE 3328 1024 3328 928
WIRE 3360 1024 3328 1024
WIRE 3696 1024 3696 1008
WIRE 3696 1024 3648 1024
WIRE 3872 1024 3872 1008
WIRE 4112 1024 4112 1008
WIRE 2912 1040 2912 1024
WIRE 4000 1040 4000 1024
WIRE 3168 1120 3168 1024
WIRE 3216 1120 3168 1120
WIRE 3360 1120 3296 1120
WIRE 3696 1120 3696 1104
WIRE 3696 1120 3648 1120
WIRE 4112 1120 4112 1104
WIRE 2912 1216 2912 1200
WIRE 3264 1216 3248 1216
WIRE 3360 1216 3344 1216
WIRE 3696 1216 3648 1216
WIRE 3696 1232 3696 1216
WIRE 3696 1312 3648 1312
WIRE 2912 1328 2912 1296
WIRE 3696 1328 3696 1312
WIRE 3504 1424 3504 1392
WIRE 3696 1424 3696 1408
FLAG 3504 1424 0
FLAG 3872 1024 0
FLAG 3248 1216 0
FLAG 2912 1040 0
FLAG 3696 1424 0
FLAG 2912 1328 0
FLAG 2912 1200 TEMP
FLAG 4000 1040 0
FLAG 4112 1120 0
FLAG 4064 960 0
SYMBOL cap 3856 944 R0
WINDOW 123 24 58 Left 2
WINDOW 3 41 30 Left 2
SYMATTR Value2 IC=6
SYMATTR Value 4
SYMATTR InstName C1
SYMBOL res 3680 912 R0
SYMATTR InstName R1
SYMATTR Value 1.54Meg
SYMBOL res 3680 1008 R0
SYMATTR InstName R2
SYMATTR Value 249K
SYMBOL res 3360 1200 R90
WINDOW 0 0 56 VBottom 2
WINDOW 3 32 56 VTop 2
SYMATTR InstName R3
SYMATTR Value 3K
SYMBOL voltage 2912 928 R0
WINDOW 123 0 0 Left 2
WINDOW 39 0 0 Left 2
SYMATTR InstName V1
SYMATTR Value PWL(0 0 100u 9)
SYMBOL res 3680 1312 R0
SYMATTR InstName Rthermistor
SYMATTR Value R=9.1k*exp(3447/(V(temp)+273) - 3477/300)
SYMBOL res 3680 1216 R0
SYMATTR InstName R4
SYMATTR Value 9.1K
SYMBOL LED 3152 960 R0
SYMATTR InstName D1
SYMATTR Value NSPW500BS
SYMBOL res 3312 1104 R90
WINDOW 0 0 56 VBottom 2
WINDOW 3 32 56 VTop 2
SYMATTR InstName R5
SYMATTR Value 5K
SYMBOL voltage 2912 1200 R0
WINDOW 123 0 0 Left 2
WINDOW 39 0 0 Left 2
SYMATTR InstName V2
SYMATTR Value PWL(0 25 60 45 80 45 100 30)
SYMBOL LTC4079 3504 1120 R0
SYMATTR InstName U1
SYMATTR Value TIMEOUT=-1
SYMBOL sw 4000 928 M0
WINDOW 0 -14 12 Right 2
WINDOW 3 -15 97 Right 2
SYMATTR InstName S1
SYMATTR Value SDIS
SYMBOL voltage 4112 1008 R0
WINDOW 123 0 0 Left 2
WINDOW 39 0 0 Left 2
SYMATTR InstName V3
SYMATTR Value PWL(0 0 180 0 +10u 1 +1 1 +10u 0)
TEXT 4328 1408 Left 2 !.tran 300
TEXT 3808 1272 Left 2 ;Timing is Paused When NTC voltage out of range
TEXT 4128 1240 Bottom 2 ;Current Limit to Control Die Temperature NOT MODELED
TEXT 3880 912 Bottom 2 ;Initial Condition Required on Capacitor\nto Avoid Bad Battery Shutdown
TEXT 3824 1160 Left 2 !.model SDIS SW(Ron=1 Roff=1G vt=.5 vh=-.3)
TEXT 2928 1440 Left 2 ;Note:\n  If the simulation model is not found please update with the "Sync Release" command from the "Tools" menu.\n  It remains the customer's responsibility to verify proper and reliable operation in the actual application.\n  Component substitution and printed circuit board layout may significantly affect circuit performance or reliability.\n  Contact your local sales representative for assistance. This circuit is distributed to customers only for use with LTC parts.\n  Copyright © 2016 Linear Technology Inc. All rights reserved.
TEXT 3536 840 Bottom 2 ;LTC4079 - 60V, 250mA Linear Charger with Low Quiescent Current\nHigh Vin, Backup 2-Cell Li-Ion Battery Charger\nInput: 9V to 60V       Output: 8.4Vbat @ 250mA
