Version 4
SHEET 1 6404 1204
WIRE 944 -416 -128 -416
WIRE -384 -336 -496 -336
WIRE -128 -336 -128 -416
WIRE -128 -336 -384 -336
WIRE 16 -336 -128 -336
WIRE 144 -336 16 -336
WIRE 160 -336 144 -336
WIRE 272 -336 240 -336
WIRE 368 -336 272 -336
WIRE 512 -336 464 -336
WIRE 800 -336 608 -336
WIRE 1152 -336 800 -336
WIRE -496 -320 -496 -336
WIRE 16 -288 16 -336
WIRE 704 -288 704 -304
WIRE 592 -240 592 -288
WIRE -496 -208 -496 -240
WIRE 704 -208 704 -224
WIRE 944 -144 944 -416
WIRE 1056 -144 944 -144
WIRE -384 -112 -384 -336
WIRE 944 -112 944 -144
WIRE 592 -96 592 -160
WIRE 704 -96 704 -128
WIRE 704 -96 592 -96
WIRE 16 -80 16 -224
WIRE 144 -80 144 -336
WIRE 272 -80 272 -336
WIRE 384 -80 384 -288
WIRE 592 -80 592 -96
WIRE 800 -80 800 -336
WIRE 1056 -80 1056 -144
WIRE -384 0 -384 -32
WIRE -256 0 -384 0
WIRE -80 0 -256 0
WIRE 944 0 944 -32
WIRE 944 0 880 0
WIRE -384 32 -384 0
WIRE -256 48 -256 0
WIRE -80 64 -112 64
WIRE 1056 64 1056 0
WIRE 1056 64 880 64
WIRE 1152 112 1152 -336
WIRE 1216 112 1152 112
WIRE 1328 112 1216 112
WIRE 1472 112 1328 112
WIRE -160 128 -176 128
WIRE -80 128 -96 128
WIRE 912 128 880 128
WIRE 992 128 976 128
WIRE 1216 128 1216 112
WIRE 1328 128 1328 112
WIRE 1472 128 1472 112
WIRE 1536 144 1520 144
WIRE -384 176 -384 112
WIRE -384 176 -416 176
WIRE -256 176 -256 112
WIRE -256 176 -384 176
WIRE 1600 192 1520 192
WIRE -256 208 -256 176
WIRE -80 208 -112 208
WIRE 912 208 880 208
WIRE 992 208 976 208
WIRE 1216 224 1216 192
WIRE 1328 224 1328 208
WIRE 1472 224 1472 208
WIRE 1600 224 1600 192
WIRE -384 240 -384 176
WIRE -80 272 -112 272
WIRE 1056 272 880 272
WIRE 1600 320 1600 304
WIRE -384 336 -384 320
WIRE -256 336 -256 272
WIRE -256 336 -384 336
WIRE -80 336 -256 336
WIRE 944 336 880 336
WIRE 1056 336 1056 272
WIRE -384 368 -384 336
WIRE 944 368 944 336
WIRE 592 432 592 416
WIRE 704 432 592 432
WIRE 704 448 704 432
WIRE 592 480 592 432
WIRE 944 480 944 448
WIRE 1056 480 1056 416
WIRE 1056 480 944 480
WIRE 704 544 704 528
WIRE 16 560 16 416
WIRE 384 608 384 416
WIRE 592 608 592 560
WIRE 704 624 704 608
WIRE -384 656 -384 448
WIRE -384 656 -480 656
WIRE -128 656 -384 656
WIRE 16 656 16 624
WIRE 16 656 -128 656
WIRE 144 656 144 416
WIRE 144 656 16 656
WIRE 176 656 144 656
WIRE 272 656 272 416
WIRE 272 656 256 656
WIRE 368 656 272 656
WIRE 512 656 464 656
WIRE 800 656 800 416
WIRE 800 656 608 656
WIRE 1152 656 1152 112
WIRE 1152 656 800 656
WIRE -480 672 -480 656
WIRE -128 736 -128 656
WIRE 944 736 944 480
WIRE 944 736 -128 736
WIRE -480 768 -480 752
FLAG 704 -304 0
FLAG 704 624 0
FLAG 992 128 0
FLAG 992 208 0
FLAG -416 176 0
FLAG -176 128 0
FLAG -112 64 0
FLAG -112 272 0
FLAG -496 -208 0
FLAG -480 768 0
FLAG -496 -336 IN1
FLAG -480 656 IN2
FLAG 1216 224 0
FLAG 1472 224 0
FLAG 1536 144 0
FLAG 1328 112 OUT
FLAG 1600 320 0
FLAG 1328 224 0
FLAG -112 208 0
SYMBOL nmos 512 -288 R270
WINDOW 0 85 43 VTop 2
WINDOW 3 67 99 VLeft 2
SYMATTR InstName Q2
SYMATTR Value Si7386DP
SYMBOL nmos 464 -288 M270
WINDOW 0 82 32 VTop 2
WINDOW 3 67 91 VLeft 2
SYMATTR InstName Q1
SYMATTR Value Si7386DP
SYMBOL nmos 464 608 R90
WINDOW 0 66 58 VLeft 2
WINDOW 3 79 44 VTop 2
SYMATTR InstName Q3
SYMATTR Value Si7386DP
SYMBOL nmos 512 608 M90
WINDOW 0 68 69 VLeft 2
WINDOW 3 81 50 VTop 2
SYMATTR InstName Q4
SYMATTR Value Si7386DP
SYMBOL cap 0 -288 R0
SYMATTR InstName C1
SYMATTR Value .1µ
SYMBOL res 928 -128 R0
SYMATTR InstName R7
SYMATTR Value 100K
SYMBOL res 1040 -96 R0
SYMATTR InstName R8
SYMATTR Value 100K
SYMBOL res 720 -112 R180
WINDOW 0 -37 76 Left 2
WINDOW 3 -34 40 Left 2
SYMATTR InstName R5
SYMATTR Value 47
SYMBOL res 576 -256 R0
SYMATTR InstName R3
SYMATTR Value 10
SYMBOL cap 688 -224 M180
WINDOW 0 24 64 Left 2
WINDOW 3 24 8 Left 2
SYMATTR InstName C3
SYMATTR Value .015µ
SYMBOL cap 976 112 R90
WINDOW 0 0 32 VBottom 2
WINDOW 3 32 32 VTop 2
SYMATTR InstName C5
SYMATTR Value .047µ
SYMBOL cap 976 192 R90
WINDOW 0 0 32 VBottom 2
WINDOW 3 32 32 VTop 2
SYMATTR InstName C6
SYMATTR Value .047µ
SYMBOL res 960 464 R180
WINDOW 0 -41 74 Left 2
WINDOW 3 -67 38 Left 2
SYMATTR InstName R9
SYMATTR Value 100K
SYMBOL res 1072 432 R180
WINDOW 0 -52 78 Left 2
WINDOW 3 -67 42 Left 2
SYMATTR InstName R10
SYMATTR Value 100K
SYMBOL res 688 432 R0
SYMATTR InstName R6
SYMATTR Value 47
SYMBOL cap 688 544 R0
WINDOW 3 29 54 Left 2
SYMATTR Value .015µ
SYMATTR InstName C4
SYMBOL res 608 576 R180
WINDOW 0 -41 76 Left 2
WINDOW 3 -36 42 Left 2
SYMATTR InstName R4
SYMATTR Value 10
SYMBOL cap 0 624 M180
WINDOW 0 24 56 Left 2
WINDOW 3 24 8 Left 2
SYMATTR InstName C2
SYMATTR Value .1µ
SYMBOL res -400 -128 R0
SYMATTR InstName R12
SYMATTR Value 137K
SYMBOL res -400 16 R0
SYMATTR InstName R11
SYMATTR Value 20K
SYMBOL res -368 336 R180
WINDOW 0 -50 71 Left 2
WINDOW 3 -50 37 Left 2
SYMATTR InstName R13
SYMATTR Value 20K
SYMBOL cap -272 48 R0
SYMATTR InstName C7
SYMATTR Value .01µ
SYMBOL cap -272 208 R0
SYMATTR InstName C8
SYMATTR Value .01µ
SYMBOL cap -96 112 R90
WINDOW 0 0 32 VBottom 2
WINDOW 3 32 32 VTop 2
SYMATTR InstName C9
SYMATTR Value .1µ
SYMBOL res -368 464 R180
WINDOW 0 -52 74 Left 2
WINDOW 3 -65 43 Left 2
SYMATTR InstName R14
SYMATTR Value 137K
SYMBOL voltage -496 -336 R0
WINDOW 123 0 0 Left 2
WINDOW 39 0 0 Left 2
SYMATTR InstName V1
SYMATTR Value 11
SYMBOL voltage -480 656 R0
WINDOW 123 0 0 Left 2
WINDOW 39 0 0 Left 2
SYMATTR InstName V2
SYMATTR Value 12
SYMBOL res 144 -320 R270
WINDOW 0 32 56 VTop 2
WINDOW 3 0 56 VBottom 2
SYMATTR InstName R1
SYMATTR Value .004
SYMBOL res 160 672 R270
WINDOW 0 32 56 VTop 2
WINDOW 3 0 56 VBottom 2
SYMATTR InstName R2
SYMATTR Value .004
SYMBOL LTC4225-2 16 144 R0
SYMATTR InstName U1
SYMBOL cap 1200 128 R0
SYMATTR InstName C10
SYMATTR Value 100µ
SYMBOL sw 1472 112 M0
WINDOW 0 -29 10 Right 2
WINDOW 3 -25 104 Right 2
SYMATTR InstName S1
SYMATTR Value SHORT
SYMBOL voltage 1600 208 R0
WINDOW 123 24 138 Left 2
WINDOW 39 24 117 Left 2
SYMATTR Value PWL(0 0 300m 0 +100u 1 + 10m 1 +100u 0 )
SYMATTR InstName V3
SYMBOL res 1312 112 R0
SYMATTR InstName Rload
SYMATTR Value 3
TEXT 1192 640 Left 2 !.tran 1 startup
TEXT 1192 608 Left 2 !.model SHORT SW(Ron=10m Roff=1.7 Vt=.5 Vh=-200m)
TEXT 448 -432 Bottom 2 ;LTC4225-2 - Dual Ideal Diode and Hot Swap Controller\nDual 12V/7.6A Ideal Diode and Hot Swap Controller for µTCA Applications
TEXT -224 760 Left 2 ;Note:\n  If the simulation model is not found please update with the "Sync Release" command from the "Tools" menu.\n  It remains the customer's responsibility to verify proper and reliable operation in the actual application.\n  Component substitution and printed circuit board layout may significantly affect circuit performance or reliability.\n  Contact your local sales representative for assistance. This circuit is distributed to customers only for use with LTC parts.\n  Copyright © 2014 Linear Technology Inc. All rights reserved.
