Version 4
SHEET 1 3196 2100
WIRE 688 1056 -64 1056
WIRE -64 1104 -64 1056
WIRE 16 1104 -64 1104
WIRE 128 1104 80 1104
WIRE 272 1104 128 1104
WIRE 1232 1104 272 1104
WIRE 1424 1104 1232 1104
WIRE 1856 1104 1712 1104
WIRE 1424 1120 1424 1104
WIRE 1712 1120 1712 1104
WIRE 1856 1120 1856 1104
WIRE -64 1136 -64 1104
WIRE 1232 1136 1232 1104
WIRE 688 1200 688 1056
WIRE 1104 1200 688 1200
WIRE 1664 1200 1360 1200
WIRE 688 1232 688 1200
WIRE 1856 1232 1856 1200
WIRE -64 1248 -64 1216
WIRE 272 1264 272 1104
WIRE 944 1280 880 1280
WIRE 1104 1280 1024 1280
WIRE 1424 1280 1424 1184
WIRE 1424 1280 1360 1280
WIRE 1472 1280 1424 1280
WIRE 1584 1280 1472 1280
WIRE 1712 1280 1712 1216
WIRE 1712 1280 1584 1280
WIRE 1776 1280 1712 1280
WIRE 1856 1280 1776 1280
WIRE 1472 1312 1472 1280
WIRE 1584 1312 1584 1280
WIRE 1712 1312 1712 1280
WIRE 1856 1312 1856 1280
WIRE 128 1344 128 1104
WIRE 688 1360 688 1312
WIRE 720 1360 688 1360
WIRE 832 1360 800 1360
WIRE 1104 1360 832 1360
WIRE 1392 1360 1360 1360
WIRE 688 1392 688 1360
WIRE 832 1392 832 1360
WIRE 1472 1408 1472 1376
WIRE 1584 1408 1584 1376
WIRE 1856 1408 1856 1376
WIRE 1712 1424 1712 1392
WIRE 272 1440 272 1328
WIRE 336 1440 272 1440
WIRE 416 1440 400 1440
WIRE 512 1440 496 1440
WIRE 528 1440 512 1440
WIRE 624 1440 608 1440
WIRE 1232 1440 1232 1424
WIRE 272 1456 272 1440
WIRE 832 1472 832 1456
WIRE 688 1504 688 1488
WIRE 1712 1520 1712 1504
WIRE 512 1536 512 1440
WIRE 1392 1536 1392 1360
WIRE 1392 1536 512 1536
WIRE 128 1552 128 1408
WIRE 272 1552 272 1520
WIRE 272 1552 128 1552
WIRE 1424 1552 1424 1280
WIRE 1424 1552 272 1552
FLAG 1232 1440 0
FLAG 1856 1232 0
FLAG 1712 1520 0
FLAG 1856 1408 0
FLAG -64 1248 0
FLAG 688 1504 0
FLAG 832 1472 0
FLAG 1472 1408 0
FLAG 1584 1408 0
FLAG 880 1280 0
FLAG 1856 1104 IN
FLAG 1776 1280 OUT
SYMBOL PowerProducts\\LTC4446 1232 1280 R0
SYMATTR InstName U1
SYMBOL npn 624 1392 R0
SYMATTR InstName Q1
SYMATTR Value 2N2369
SYMBOL res 512 1456 R270
WINDOW 0 32 56 VTop 2
WINDOW 3 0 56 VBottom 2
SYMATTR InstName R1
SYMATTR Value 100K
SYMBOL cap 816 1392 R0
SYMATTR InstName C1
SYMATTR Value 4700p
SYMBOL res 816 1344 R90
WINDOW 0 0 56 VBottom 2
WINDOW 3 32 56 VTop 2
SYMATTR InstName R2
SYMATTR Value 4.7K
SYMBOL voltage -64 1120 R0
WINDOW 0 23 18 Left 2
WINDOW 3 22 93 Left 2
SYMATTR InstName V1
SYMATTR Value 12
SYMBOL res 512 1424 R90
WINDOW 0 0 56 VBottom 2
WINDOW 3 32 56 VTop 2
SYMATTR InstName R3
SYMATTR Value 200
SYMBOL cap 400 1424 R90
WINDOW 0 0 32 VBottom 2
WINDOW 3 32 32 VTop 2
SYMATTR InstName C2
SYMATTR Value .01µ
SYMBOL diode 256 1328 M180
WINDOW 0 24 64 Left 2
WINDOW 3 24 0 Left 2
SYMATTR InstName D1
SYMATTR Value 1N4148
SYMBOL diode 256 1520 M180
WINDOW 0 24 64 Left 2
WINDOW 3 24 0 Left 2
SYMATTR InstName D2
SYMATTR Value 1N4148
SYMBOL zener 112 1408 M180
WINDOW 0 24 64 Left 2
WINDOW 3 24 0 Left 2
SYMATTR InstName D3
SYMATTR Value BZX84C12L
SYMATTR Description Diode
SYMATTR Type diode
SYMBOL diode 1456 1376 M180
WINDOW 0 24 64 Left 2
WINDOW 3 24 0 Left 2
SYMATTR InstName D4
SYMATTR Value 1N4148
SYMBOL cap 1568 1312 R0
SYMATTR InstName C3
SYMATTR Value 3300p
SYMBOL nmos 1664 1120 R0
SYMATTR InstName Q2
SYMATTR Value IRF1312S
SYMBOL voltage 1856 1104 R0
SYMATTR InstName V2
SYMATTR Value 50
SYMBOL ind 1696 1296 R0
WINDOW 0 38 37 Left 2
WINDOW 3 43 80 Left 2
SYMATTR InstName Lload
SYMATTR Value .1µ
SYMBOL schottky 1872 1376 R180
WINDOW 0 -6 70 Right 2
WINDOW 3 4 2 Right 2
SYMATTR InstName D5
SYMATTR Value PDS5100
SYMATTR Description Diode
SYMATTR Type diode
SYMBOL diode 16 1120 R270
WINDOW 0 32 32 VTop 2
WINDOW 3 0 32 VBottom 2
SYMATTR InstName D6
SYMATTR Value 1N4148
SYMBOL cap 1408 1120 R0
SYMATTR InstName C4
SYMATTR Value .33µ
SYMBOL voltage 1040 1280 R90
WINDOW 0 -32 56 VBottom 2
WINDOW 3 32 56 VTop 2
WINDOW 123 53 56 VTop 2
SYMATTR InstName V3
SYMATTR Value PWL(1m 0 +10n 5
SYMATTR Value2 +.2m 5 +10n 0)
SYMBOL res 672 1216 R0
WINDOW 0 42 37 Left 2
WINDOW 3 36 81 Left 2
SYMATTR InstName R4
SYMATTR Value 15K
SYMBOL res 1696 1408 R0
WINDOW 0 40 35 Left 2
WINDOW 3 44 77 Left 2
SYMATTR InstName Rload
SYMATTR Value 0.7
TEXT 1584 1648 Left 2 !.tran 1.5ms startup
TEXT 1744 1528 Left 2 ;Load
TEXT 936 1056 Bottom 2 ;LTC4446 - High Voltage High Side / Low Side N-Channel MOSFET Driver\nFast Turn-On/Turn-Off DC Switch\nInput: 0V to 100V\nThis High-Side Driver can be used to switch loads or between input sources at very high speeds and with no duty cycle limitations
TEXT 256 1576 Left 2 ;Notes:\n  C3 (3.3nF) is optional but may be required with high impedance loads (charge pump needs current return path).\n  D5 is required for inductive loads.\n  D6 (1N4148) is optional for fast on.\n \n  If the simulation model is not found please update with the "Sync Release" command from the "Tools" menu.\n  It remains the customer's responsibility to verify proper and reliable operation in the actual application.\n  Component substitution and printed circuit board layout may significantly affect circuit performance or reliability.\n  Contact your local sales representative for assistance. This circuit is distributed to customers only for use with LTC parts.\n  Copyright © 2012 Linear Technology Inc. All rights reserved.
RECTANGLE Normal 1808 1552 1680 1248 2
