Version 4
SHEET 1 1160 1284
WIRE -256 144 -432 144
WIRE -96 144 -256 144
WIRE 112 144 -96 144
WIRE 304 144 208 144
WIRE 400 144 304 144
WIRE -432 160 -432 144
WIRE -256 160 -256 144
WIRE 400 160 400 144
WIRE 128 224 128 192
WIRE -432 240 -432 224
WIRE -256 240 -256 224
WIRE 400 256 400 224
WIRE -96 288 -96 144
WIRE 0 288 -96 288
WIRE 304 288 304 144
WIRE 304 288 256 288
WIRE -96 352 -96 288
WIRE 304 384 256 384
WIRE 128 464 128 448
WIRE -96 496 -96 432
WIRE 304 496 304 384
WIRE 304 496 -96 496
WIRE 320 496 304 496
WIRE 400 496 384 496
FLAG 128 464 0
FLAG -256 240 0
FLAG 400 496 0
FLAG -432 144 IN
FLAG 304 144 OUT
FLAG 400 256 0
FLAG -432 240 0
SYMBOL LTC4357 128 336 R0
SYMATTR InstName U1
SYMBOL nmos 208 192 M270
WINDOW 0 55 46 VTop 2
WINDOW 3 -13 73 VLeft 2
SYMATTR InstName Q1
SYMATTR Value FDB3682
SYMBOL zener -272 224 M180
WINDOW 0 24 64 Left 2
WINDOW 3 24 0 Left 2
SYMATTR InstName D1
SYMATTR Value BZX84C15L
SYMATTR Description Diode
SYMATTR Type diode
SYMBOL res -112 336 R0
SYMATTR InstName R1
SYMATTR Value 100
SYMBOL cap 320 512 R270
WINDOW 0 32 32 VTop 2
WINDOW 3 0 32 VBottom 2
SYMATTR InstName C1
SYMATTR Value .1µ
SYMBOL cap 384 160 R0
WINDOW 3 38 33 Left 2
WINDOW 39 24 58 Left 2
WINDOW 40 24 82 Left 2
SYMATTR Value 4
SYMATTR SpiceLine Rser=.1
SYMATTR SpiceLine2 Rpar=10
SYMATTR InstName Cload
SYMBOL diode -448 224 M180
WINDOW 0 30 57 Left 2
WINDOW 3 24 0 Left 2
SYMATTR InstName U2
SYMATTR Value PhotoCell
SYMATTR Prefix X
TEXT 160 80 Bottom 2 ;LTC4357 - Positive High Voltage Ideal Diode Controller\n12V Solar Battery Charger
TEXT -528 536 Left 2 ;Notes:\n  If the simulation model is not found please update with the "Sync Release" command from the "Tools" menu.\n  It remains the customer's responsibility to verify proper and reliable operation in the actual application.\n  Component substitution and printed circuit board layout may significantly affect circuit performance or reliability.\n  Contact your local sales representative for assistance. This circuit is distributed to customers only for use with LTC parts.\n  Copyright © 2014 Linear Technology Inc. All rights reserved.
TEXT 472 488 Left 2 !.tran 20
TEXT 432 136 Bottom 3 ;Battery
TEXT -456 288 Left 1 !.subckt PhotoCell B A\nC1 A B 1n\nV1 N001 B PWL 0 0 120n 14\nD1 N001 A S2\nR1 A N001 75\n.model S2 D(Ron=.1 Ilimit=5.1 epsilon=.5)\n.ends
CIRCLE Normal 332 68 548 332 2
