Version 4
SHEET 1 1716 680
WIRE 128 -352 128 -368
WIRE -208 -304 -304 -304
WIRE -16 -304 -208 -304
WIRE 656 -304 272 -304
WIRE -304 -288 -304 -304
WIRE -208 -240 -208 -304
WIRE -176 -240 -208 -240
WIRE -64 -240 -96 -240
WIRE -16 -240 -64 -240
WIRE 480 -240 272 -240
WIRE 528 -240 480 -240
WIRE 656 -240 656 -304
WIRE 656 -240 608 -240
WIRE 768 -240 656 -240
WIRE 880 -240 768 -240
WIRE 1024 -240 880 -240
WIRE 480 -224 480 -240
WIRE 656 -224 656 -240
WIRE 768 -224 768 -240
WIRE 880 -224 880 -240
WIRE 1024 -224 1024 -240
WIRE 1184 -208 1072 -208
WIRE -304 -192 -304 -208
WIRE -16 -176 -32 -176
WIRE 432 -176 272 -176
WIRE 1184 -176 1184 -208
WIRE 480 -128 480 -144
WIRE 768 -128 768 -160
WIRE 880 -128 880 -144
WIRE 1024 -128 1024 -144
WIRE -64 -112 -64 -240
WIRE -16 -112 -64 -112
WIRE 288 -112 272 -112
WIRE 384 -112 368 -112
WIRE 432 -96 432 -176
WIRE 656 -96 656 -144
WIRE 656 -96 432 -96
WIRE 1184 -80 1184 -96
WIRE -16 -48 -32 -48
WIRE 320 -48 272 -48
WIRE -16 16 -32 16
WIRE 320 16 320 -48
WIRE 320 16 272 16
WIRE 128 96 128 64
WIRE 320 96 320 80
FLAG 320 96 0
FLAG 480 -128 0
FLAG -32 -176 0
FLAG 128 96 0
FLAG 384 -112 0
FLAG -304 -192 0
FLAG 768 -128 0
FLAG 1024 -128 0
FLAG 1072 -160 0
FLAG 1184 -80 0
FLAG 880 -240 OUT
FLAG -304 -304 IN
FLAG 880 -128 0
SYMBOL cap 304 16 R0
WINDOW 0 28 11 Left 2
SYMATTR InstName C1
SYMATTR Value .1µ
SYMBOL voltage -304 -304 R0
WINDOW 123 0 0 Left 2
WINDOW 39 0 0 Left 2
SYMATTR InstName V1
SYMATTR Value 12
SYMBOL cap 752 -224 R0
SYMATTR InstName C2
SYMATTR Value 330µ
SYMBOL res 272 -96 R270
WINDOW 0 32 56 VTop 2
WINDOW 3 0 56 VBottom 2
SYMATTR InstName R1
SYMATTR Value 20K
SYMBOL res -192 -224 R270
WINDOW 0 32 56 VTop 2
WINDOW 3 0 56 VBottom 2
SYMATTR InstName R2
SYMATTR Value 20K
SYMBOL res 464 -240 R0
SYMATTR InstName R3
SYMATTR Value 20K
SYMBOL res 624 -256 R90
WINDOW 0 0 56 VBottom 2
WINDOW 3 32 56 VTop 2
SYMATTR InstName R4
SYMATTR Value 150K
SYMBOL res 640 -240 R0
SYMATTR InstName R5
SYMATTR Value 20K
SYMBOL LTC4217 128 -144 R0
SYMATTR InstName U1
SYMBOL sw 1024 -128 R180
WINDOW 0 -23 102 Right 2
WINDOW 3 -26 2 Right 2
SYMATTR InstName S1
SYMATTR Value SHORT
SYMBOL voltage 1184 -192 R0
WINDOW 123 0 0 Left 2
WINDOW 39 0 0 Left 2
SYMATTR InstName V2
SYMATTR Value PULSE(0 1 240m 1m 1m 10m)
SYMBOL res 864 -240 R0
SYMATTR InstName Rload
SYMATTR Value 8
TEXT 504 64 Left 2 !.model SHORT SW(Ron=10m Roff=1K Vt=.5 Vh=-.4)
TEXT 504 96 Left 2 !.tran 500m startup
TEXT 488 -376 Bottom 2 ;LTC4217 - 2A Integrated Hot Swap Controller\nSingle Channel 12V, 1.5A Hot Swap Controller
TEXT -216 112 Left 2 ;Note:\n  If the simulation model is not found please update with the "Sync Release" command from the "Tools" menu.\n  It remains the customer's responsibility to verify proper and reliable operation in the actual application.\n  Component substitution and printed circuit board layout may significantly affect circuit performance or reliability.\n  Contact your local sales representative for assistance. This circuit is distributed to customers only for use with LTC parts.\n  Copyright © 2014 Linear Technology Inc. All rights reserved.
