Version 4
SHEET 1 1152 1284
WIRE 0 272 -368 272
WIRE 288 272 256 272
WIRE -368 304 -368 272
WIRE 288 336 288 272
WIRE 288 336 256 336
WIRE -368 400 -368 384
WIRE 288 400 288 336
WIRE 288 400 256 400
WIRE 128 464 128 448
WIRE 288 480 288 400
WIRE 336 480 288 480
WIRE 336 496 336 480
WIRE 0 560 -368 560
WIRE 288 560 288 480
WIRE 288 560 256 560
WIRE -368 592 -368 560
WIRE 336 592 336 576
WIRE 288 624 288 560
WIRE 288 624 256 624
WIRE -368 688 -368 672
WIRE 288 688 288 624
WIRE 288 688 256 688
WIRE 128 752 128 736
FLAG 128 464 0
FLAG -368 400 0
FLAG 128 752 0
FLAG -368 688 0
FLAG 336 592 0
SYMBOL voltage -368 288 R0
WINDOW 123 0 0 Left 2
WINDOW 39 0 0 Left 2
SYMATTR Value PWL(0 12 50m 0 100m 12)
SYMATTR InstName V1
SYMBOL voltage -368 576 R0
WINDOW 123 0 0 Left 2
WINDOW 39 0 0 Left 2
SYMATTR Value PWL(0 0 50m 12 100m 0)
SYMATTR InstName V2
SYMBOL LTC4358 128 336 R0
SYMATTR InstName U1
SYMBOL LTC4358 128 624 R0
SYMATTR InstName U2
SYMBOL res 320 480 R0
SYMATTR InstName Rload
SYMATTR Value 2
TEXT 296 704 Left 2 !.tran 100m
TEXT 32 216 Bottom 2 ;LTC4358 - 5A Ideal Diode\n12V, 5A Diode-OR\nInput: 12V     Output: 5A
TEXT -584 760 Left 2 ;Note:\n  If the simulation model is not found please update with the "Sync Release" command from the "Tools" menu.\n  It remains the customer's responsibility to verify proper and reliable operation in the actual application.\n  Component substitution and printed circuit board layout may significantly affect circuit performance or reliability\n  Contact your local sales representative for assistance. This circuit is distributed to customers only for use with LTC parts\n  Copyright © 2012 Linear Technology Inc. All rights reserved.
