Version 4
SHEET 1 1672 828
WIRE -304 -80 -384 -80
WIRE -208 -80 -240 -80
WIRE -144 -80 -208 -80
WIRE -48 -80 -144 -80
WIRE 112 -80 -48 -80
WIRE 128 -80 112 -80
WIRE 224 -80 208 -80
WIRE 400 -80 320 -80
WIRE 560 -80 400 -80
WIRE 656 -80 560 -80
WIRE 768 -80 656 -80
WIRE 928 -80 848 -80
WIRE 1024 -80 928 -80
WIRE -384 -64 -384 -80
WIRE -144 -64 -144 -80
WIRE -48 -64 -48 -80
WIRE 560 -64 560 -80
WIRE 656 -64 656 -80
WIRE 928 -64 928 -80
WIRE 1024 -64 1024 -80
WIRE 832 -16 832 -32
WIRE -384 32 -384 16
WIRE 112 32 112 -80
WIRE 208 32 208 -80
WIRE 304 32 304 -32
WIRE 400 32 400 -80
WIRE 560 32 560 0
WIRE 656 32 656 16
WIRE 784 32 784 -32
WIRE 928 32 928 16
WIRE 1024 32 1024 0
WIRE -208 80 -208 -80
WIRE 0 80 -208 80
WIRE 528 112 512 112
WIRE 608 112 592 112
WIRE -48 128 -48 16
WIRE 0 128 -48 128
WIRE 784 128 784 112
WIRE 0 176 -32 176
WIRE 544 176 512 176
WIRE -144 224 -144 16
WIRE 0 224 -144 224
WIRE 528 240 512 240
WIRE 608 240 592 240
WIRE -208 272 -208 80
WIRE 0 272 -208 272
WIRE 304 336 304 320
WIRE -208 384 -208 272
WIRE 112 384 112 320
WIRE 112 384 -208 384
WIRE 128 384 112 384
WIRE 208 384 208 320
WIRE 224 384 208 384
WIRE 400 384 400 320
WIRE 400 384 320 384
WIRE 560 384 400 384
WIRE 656 384 560 384
WIRE 560 400 560 384
WIRE 656 400 656 384
WIRE -208 416 -208 384
WIRE 560 496 560 464
WIRE 656 496 656 480
WIRE -208 512 -208 480
FLAG -384 32 0
FLAG 656 32 0
FLAG 1024 32 0
FLAG 784 128 0
FLAG 544 176 0
FLAG 832 -16 0
FLAG 656 496 0
FLAG 560 496 0
FLAG -208 512 0
FLAG 928 32 0
FLAG -32 176 0
FLAG 608 112 0
FLAG 608 240 0
FLAG -384 -80 IN
FLAG 656 -80 OUT1
FLAG 656 384 OUT2
FLAG 560 32 0
SYMBOL nmos 224 -32 R270
WINDOW 0 82 25 VTop 2
WINDOW 3 56 95 VTop 2
SYMATTR InstName Q1
SYMATTR Value FDMS86500DC
SYMBOL res 112 -64 R270
WINDOW 0 32 56 VTop 2
WINDOW 3 0 56 VBottom 2
SYMATTR InstName R1
SYMATTR Value 30m
SYMBOL voltage -384 -80 R0
WINDOW 123 0 0 Left 2
WINDOW 39 0 0 Left 2
SYMATTR InstName V1
SYMATTR Value 12
SYMBOL nmos 224 336 M90
WINDOW 0 68 39 VLeft 2
WINDOW 3 97 8 VRight 2
SYMATTR InstName Q2
SYMATTR Value FDMS86500DC
SYMBOL res 112 400 R270
WINDOW 0 32 56 VTop 2
WINDOW 3 0 56 VBottom 2
SYMATTR InstName R2
SYMATTR Value 30m
SYMBOL sw 864 -80 M270
WINDOW 0 31 26 VLeft 2
WINDOW 3 -28 22 VLeft 2
SYMATTR InstName S1
SYMATTR Value SWIT
SYMBOL cap 1008 -64 R0
SYMATTR Value 1µ
SYMATTR InstName C1
SYMATTR SpiceLine Rser=10m
SYMBOL voltage 784 16 R0
WINDOW 123 24 138 Left 2
WINDOW 39 24 117 Left 2
SYMATTR InstName V2
SYMATTR Value PWL(.1 0 +.01m 1 +100m 1 +.01m 0)
SYMBOL cap 528 128 R270
WINDOW 0 32 32 VTop 2
WINDOW 3 0 32 VBottom 2
SYMATTR InstName C2
SYMATTR Value 220n
SYMBOL cap 592 224 R90
WINDOW 0 0 32 VBottom 2
WINDOW 3 32 32 VTop 2
SYMATTR InstName C3
SYMATTR Value 220n
SYMBOL res -64 -80 R0
SYMATTR InstName R3
SYMATTR Value 10K
SYMBOL res -160 -80 R0
SYMATTR InstName R4
SYMATTR Value 10K
SYMBOL schottky -304 -64 R270
WINDOW 0 32 32 VTop 2
WINDOW 3 0 32 VBottom 2
SYMATTR InstName D1
SYMATTR Value SS3P5
SYMBOL cap 544 400 R0
SYMATTR Value 1m
SYMATTR InstName C4
SYMATTR SpiceLine Rser=10m
SYMBOL TVSdiode -224 480 M180
WINDOW 0 24 65 Left 2
WINDOW 3 24 -2 Left 2
SYMATTR InstName D2
SYMATTR Value SMCJ33A
SYMATTR Type zener
SYMBOL LTC4226-2 256 192 R0
SYMATTR InstName U1
SYMBOL res 912 -80 R0
SYMATTR InstName R5
SYMATTR Value 1
SYMBOL cap 544 -64 R0
SYMATTR Value 1m
SYMATTR InstName C5
SYMATTR SpiceLine Rser=10m
SYMBOL res 640 -80 R0
SYMATTR InstName Rload1
SYMATTR Value 20
SYMBOL res 640 384 R0
SYMATTR InstName Rload2
SYMATTR Value 100
TEXT 664 256 Left 2 !.model SWIT SW(Ron=1m Roff=1k vt=.5 vh=.1)
TEXT 664 288 Left 2 !.tran 1 startup
TEXT 264 -176 Bottom 2 ;LTC4226 - Wide Operating Range Dual Hot Swap Controller\nDual 12V, 7.6A Dual Ideal Diode and Hot Swap Controller for FireWire Application
TEXT -360 536 Left 2 ;Note:\n  If the simulation model is not found please update with the "Sync Release" command from the "Tools" menu.\n  It remains the customer's responsibility to verify proper and reliable operation in the actual application.\n  Component substitution and printed circuit board layout may significantly affect circuit performance or reliability.\n  Contact your local sales representative for assistance. This circuit is distributed to customers only for use with LTC parts.\n  Copyright © 2014 Linear Technology Inc. All rights reserved.
