Version 4
SHEET 1 9052 3716
WIRE 5456 -1520 5376 -1520
WIRE 5616 -1520 5536 -1520
WIRE 5712 -1520 5616 -1520
WIRE 5968 -1520 5808 -1520
WIRE 6032 -1520 5968 -1520
WIRE 6128 -1520 6032 -1520
WIRE 6032 -1504 6032 -1520
WIRE 6128 -1504 6128 -1520
WIRE 5792 -1440 5792 -1472
WIRE 5808 -1440 5792 -1440
WIRE 5888 -1440 5872 -1440
WIRE 6032 -1408 6032 -1440
WIRE 6128 -1408 6128 -1424
WIRE 5792 -1392 5792 -1440
WIRE 5616 -1344 5616 -1520
WIRE 5648 -1344 5616 -1344
WIRE 5968 -1344 5968 -1520
WIRE 5968 -1344 5936 -1344
WIRE 5648 -1184 5536 -1184
WIRE 5536 -1088 5536 -1184
WIRE 5792 -1040 5792 -1056
WIRE 5376 -1008 5376 -1520
WIRE 5536 -976 5536 -1008
WIRE 5376 -912 5376 -928
FLAG 5792 -1040 0
FLAG 5536 -976 0
FLAG 6128 -1408 0
FLAG 5376 -912 0
FLAG 6032 -1408 0
FLAG 5376 -1520 IN
FLAG 6128 -1520 OUT
FLAG 5888 -1440 0
SYMBOL cap 6016 -1504 R0
SYMATTR InstName C1
SYMATTR Value 10µ
SYMBOL res 6112 -1520 R0
SYMATTR InstName R1
SYMATTR Value 10
SYMBOL ind 5440 -1504 R270
WINDOW 0 32 56 VTop 0
WINDOW 3 5 56 VBottom 0
SYMATTR InstName L1
SYMATTR Value 1µ
SYMATTR SpiceLine Rser=150m Rpar=2K
SYMBOL voltage 5536 -1104 R0
WINDOW 123 24 146 Left 0
WINDOW 39 24 125 Left 0
SYMATTR Value PWL(0 0 1u 0)
SYMATTR InstName V2
SYMBOL nmos 5712 -1472 R270
WINDOW 0 55 44 VTop 0
WINDOW 3 -18 64 VLeft 0
SYMATTR InstName Q1
SYMATTR Value Si4892DY
SYMBOL voltage 5376 -1024 R0
WINDOW 123 24 146 Left 0
WINDOW 39 24 125 Left 0
SYMATTR Value PWL(0u 0 100m 0 +1u 20 150m 20 +10u 0 400m 0 +1u 5 800m 5 +1u 20)
SYMATTR InstName V3
SYMBOL LTC4360-1 5792 -1216 R0
SYMATTR InstName U1
SYMBOL cap 5872 -1456 R90
WINDOW 3 32 32 VTop 0
WINDOW 0 0 32 VBottom 0
SYMATTR Value .047µ
SYMATTR InstName C2
TEXT 6056 -1056 Left 0 !.tran 1000m startup
TEXT 5208 -864 Left 0 ;Note:\n  If the simulation model is not found please update with the "Sync Release" command from the "Tools" menu.\n  It remains the customer's responsibility to verify proper and reliable operation in the actual application.\n  Component substitution and printed circuit board layout may significantly affect circuit performance or reliability.\n  Contact your local sales representative for assistance. This circuit is distributed to customers only for use with LTC parts.\n  Copyright © 2011 Linear Technology Inc. All rights reserved.
TEXT 5800 -1584 Bottom 0 ;LTC4360 - Overvoltage Protection Controller\n5V System Protected From 80V Overvoltage
