Version 4
SHEET 1 1200 852
WIRE -304 -64 -400 -64
WIRE -208 -64 -304 -64
WIRE 160 -64 -208 -64
WIRE 288 -64 160 -64
WIRE 464 -64 368 -64
WIRE 496 -64 464 -64
WIRE 608 -64 560 -64
WIRE 656 -64 608 -64
WIRE 752 -64 656 -64
WIRE 656 -48 656 -64
WIRE 752 -48 752 -64
WIRE -400 -32 -400 -64
WIRE -112 0 -128 0
WIRE -16 0 -32 0
WIRE 192 0 -16 0
WIRE 336 0 272 0
WIRE 352 0 336 0
WIRE 432 0 416 0
WIRE 160 48 160 -64
WIRE 656 48 656 16
WIRE 752 48 752 32
WIRE -400 80 -400 48
WIRE -208 80 -208 -64
WIRE -16 96 -16 0
WIRE 0 96 -16 96
WIRE 336 96 336 0
WIRE 336 96 320 96
WIRE 464 112 464 -64
WIRE -208 192 -208 160
WIRE 0 192 -208 192
WIRE 416 192 320 192
WIRE -208 208 -208 192
WIRE 528 208 464 208
WIRE 0 288 -144 288
WIRE 464 288 320 288
WIRE 528 288 528 208
WIRE -208 304 -208 288
WIRE 464 304 464 288
WIRE -304 384 -304 -64
WIRE -96 384 -112 384
WIRE 0 384 -16 384
WIRE 528 384 528 368
WIRE 528 384 320 384
WIRE -144 432 -144 288
WIRE -144 432 -176 432
WIRE 160 448 160 432
WIRE 608 464 608 -64
WIRE -608 496 -624 496
WIRE -528 496 -544 496
WIRE -432 496 -448 496
WIRE 528 496 528 384
WIRE 528 496 -176 496
WIRE 608 560 608 544
WIRE 608 560 -176 560
WIRE 608 576 608 560
WIRE -304 624 -304 608
WIRE 608 672 608 656
FLAG 464 304 0
FLAG 160 448 0
FLAG -112 384 0
FLAG -128 0 0
FLAG 432 0 0
FLAG -208 304 0
FLAG 656 48 0
FLAG -400 80 0
FLAG -304 624 0
FLAG 608 672 0
FLAG -624 496 0
FLAG 752 48 0
FLAG 752 -64 OUT
FLAG -400 -64 IN
SYMBOL PowerProducts\\LTC4441 160 240 R0
SYMATTR InstName U1
SYMBOL nmos 416 112 R0
SYMATTR InstName Q1
SYMATTR Value Si7370DP
SYMBOL res 448 192 R0
SYMATTR InstName R1
SYMATTR Value 5m
SYMBOL res 0 368 R90
WINDOW 0 0 56 VBottom 2
WINDOW 3 32 56 VTop 2
SYMATTR InstName R2
SYMATTR Value 100K
SYMBOL res -16 -16 R90
WINDOW 0 0 56 VBottom 2
WINDOW 3 32 56 VTop 2
SYMATTR InstName R3
SYMATTR Value 86.6K
SYMBOL res 288 -16 R90
WINDOW 0 0 56 VBottom 2
WINDOW 3 32 56 VTop 2
SYMATTR InstName R4
SYMATTR Value 330K
SYMBOL cap 352 16 R270
WINDOW 0 32 32 VTop 2
WINDOW 3 0 32 VBottom 2
SYMATTR InstName C1
SYMATTR Value 10µ
SYMBOL res -224 64 R0
SYMATTR InstName R5
SYMATTR Value 100K
SYMBOL res -224 192 R0
SYMATTR InstName R6
SYMATTR Value 20K
SYMBOL ind 272 -48 R270
WINDOW 0 32 56 VTop 2
WINDOW 3 5 56 VBottom 2
SYMATTR InstName L1
SYMATTR Value 10µ
SYMATTR SpiceLine Rpar=2K
SYMBOL schottky 496 -48 R270
WINDOW 0 32 32 VTop 2
WINDOW 3 0 32 VBottom 2
SYMATTR InstName D1
SYMATTR Value MBR745
SYMATTR Description Diode
SYMATTR Type diode
SYMBOL cap 640 -48 R0
SYMATTR InstName C2
SYMATTR Value 100µ
SYMBOL PowerProducts\\LTC3803 -304 496 R0
SYMATTR InstName U2
SYMBOL res 512 272 R0
SYMATTR InstName R7
SYMATTR Value 100
SYMBOL voltage -400 -48 R0
SYMATTR InstName V1
SYMATTR Value 15
SYMBOL res 592 560 R0
SYMATTR InstName R8
SYMATTR Value 8.06K
SYMBOL res 592 448 R0
SYMATTR InstName R9
SYMATTR Value 511K
SYMBOL cap -544 480 R90
WINDOW 0 0 32 VBottom 2
WINDOW 3 32 32 VTop 2
SYMATTR InstName C3
SYMATTR Value .0047µ
SYMBOL res -432 480 R90
WINDOW 0 0 56 VBottom 2
WINDOW 3 32 56 VTop 2
SYMATTR InstName R10
SYMATTR Value 56K
SYMBOL res 736 -64 R0
SYMATTR InstName R11
SYMATTR Value 26
TEXT 672 576 Left 2 !.tran 10.m startup
TEXT -624 688 Left 2 ;Note:\n  If the simulation model is not found please update with the "Sync Release" command from the "Tools" menu.\n  It remains the customer's responsibility to verify proper and reliable operation in the actual application.\n  Component substitution and printed circuit board layout may significantly affect circuit performance or reliability\n  Contact your local sales representative for assistance. This circuit is distributed to customers only for use with LTC parts\n  Copyright © 2006, 2014 Linear Technology Inc. All rights reserved.
TEXT 152 -112 Bottom 2 ;LTC4441 - N-Channel MOSFET Gate Driver\nLTC3803 - Constant Frequency Current Mode Flyback DC/DC Controller\nBoost Converter with N-Channel MOSFET Gate Driver\nInput: 6V to 24V     Output: 52V @ 2A
