Version 4
SHEET 1 2424 948
WIRE -224 -48 -320 -48
WIRE -112 -48 -224 -48
WIRE -32 -48 -112 -48
WIRE 32 -48 -32 -48
WIRE 160 -48 128 -48
WIRE 304 -48 256 -48
WIRE 368 -48 304 -48
WIRE 448 -48 368 -48
WIRE 544 -48 448 -48
WIRE 448 -32 448 -48
WIRE 544 -32 544 -48
WIRE 112 32 112 0
WIRE 144 32 112 32
WIRE 176 32 176 0
WIRE 176 32 144 32
WIRE 144 48 144 32
WIRE 448 64 448 32
WIRE 544 64 544 48
WIRE -112 80 -112 -48
WIRE -224 96 -224 -48
WIRE -32 112 -32 -48
WIRE -16 112 -32 112
WIRE 304 112 304 -48
WIRE 304 112 288 112
WIRE 368 144 368 -48
WIRE -112 176 -112 160
WIRE -16 176 -112 176
WIRE -224 192 -224 176
WIRE -144 192 -224 192
WIRE -224 208 -224 192
WIRE -144 240 -144 192
WIRE -16 240 -144 240
WIRE 368 240 368 224
WIRE 368 240 288 240
WIRE -224 304 -224 288
WIRE -16 304 -224 304
WIRE -224 320 -224 304
WIRE 144 368 144 352
WIRE -320 400 -320 -48
WIRE -224 416 -224 400
WIRE -320 496 -320 480
FLAG -320 -48 IN
FLAG 144 368 0
FLAG -320 496 0
FLAG -224 416 0
FLAG 448 64 0
FLAG 544 -48 OUT
FLAG 544 64 0
SYMBOL res -128 176 M180
WINDOW 0 36 76 Left 0
WINDOW 3 36 40 Left 0
SYMATTR InstName R1
SYMATTR Value 510K
SYMBOL res -240 80 R0
SYMATTR InstName R2
SYMATTR Value 1820K
SYMBOL res -240 192 R0
SYMATTR InstName R3
SYMATTR Value 243K
SYMBOL res -240 304 R0
SYMATTR InstName R4
SYMATTR Value 59K
SYMBOL nmos 32 0 R270
WINDOW 0 56 49 VTop 0
WINDOW 3 -16 67 VLeft 0
SYMATTR InstName Q1
SYMATTR Value Si4850EY
SYMBOL nmos 256 0 M270
WINDOW 0 53 50 VTop 0
WINDOW 3 -16 72 VLeft 0
SYMATTR InstName Q2
SYMATTR Value Si4850EY
SYMBOL cap 432 -32 R0
SYMATTR InstName C1
SYMATTR Value 4.7µ
SYMBOL SpecialFunctions\\LTC4365 144 272 R0
SYMATTR InstName U1
SYMBOL voltage -320 384 R0
WINDOW 123 24 146 Left 0
WINDOW 39 24 125 Left 0
SYMATTR Value PWL(0 0 10m 12 70m 12 80m -30 90m -30 100m 12 140m 12 150m 30 160m 30 170m 12)
SYMATTR InstName V1
SYMBOL res 528 -48 R0
SYMATTR InstName Rload
SYMATTR Value 34
SYMBOL res 352 128 R0
SYMATTR InstName R5
SYMATTR Value 10K
TEXT 352 336 Left 0 !.tran 210m startup
TEXT 160 -88 Bottom 0 ;LTC4365 - UV, OV and Reverse Supply Protection Controller\nProtects 12V Automotive System from -30V to 30V Vin Faults\nInput: 12V     Output: 3.5V UV to 18V OV Protection
TEXT -456 512 Left 0 ;Note:\n  If the simulation model is not found please update with the "Sync Release" command from the "Tools" menu.\n  It remains the customer's responsibility to verify proper and reliable operation in the actual application.\n  Component substitution and printed circuit board layout may significantly affect circuit performance or reliability\n  Contact your local sales representative for assistance. This circuit is distributed to customers only for use with LTC parts\n  Copyright © 2011 Linear Technology Inc. All rights reserved.
