Version 4
SHEET 1 2960 1604
WIRE 1872 1024 1376 1024
WIRE 2112 1024 1968 1024
WIRE 1376 1056 1376 1024
WIRE 1984 1104 1568 1104
WIRE 2112 1104 2112 1024
WIRE 2112 1104 2080 1104
WIRE 2176 1104 2112 1104
WIRE 2272 1104 2176 1104
WIRE 2272 1120 2272 1104
WIRE 2176 1136 2176 1104
WIRE 1376 1168 1376 1136
WIRE 1568 1216 1568 1104
WIRE 1680 1216 1568 1216
WIRE 2112 1216 2112 1104
WIRE 2112 1216 1936 1216
WIRE 2176 1216 2176 1200
WIRE 2272 1216 2272 1200
WIRE 1568 1248 1568 1216
WIRE 2112 1248 2112 1216
WIRE 1680 1296 1664 1296
WIRE 2064 1296 2064 1152
WIRE 2064 1296 1936 1296
WIRE 1568 1344 1568 1328
WIRE 1680 1376 1664 1376
WIRE 1952 1376 1952 1072
WIRE 1952 1376 1936 1376
WIRE 2112 1376 2112 1328
WIRE 2112 1376 1952 1376
FLAG 1664 1376 0
FLAG 1664 1296 0
FLAG 2176 1216 0
FLAG 2272 1216 0
FLAG 1568 1344 0
FLAG 1376 1168 0
FLAG 2272 1104 OUT
SYMBOL POWERPRODUCTS\\LTC4412 1808 1296 R0
SYMATTR InstName U1
SYMBOL PMOS 1984 1152 R270
WINDOW 0 90 48 VCenter 2
WINDOW 3 63 45 VCenter 2
SYMATTR InstName Q1
SYMATTR Value FDC638P
SYMBOL RES 2096 1232 R0
SYMATTR InstName R1
SYMATTR Value 470K
SYMBOL cap 2160 1136 R0
SYMATTR InstName C1
SYMATTR Value 10µ
SYMBOL res 2256 1104 R0
SYMATTR InstName Rload
SYMATTR Value 150
SYMBOL VOLTAGE 1568 1232 R0
WINDOW 123 0 0 Left 2
WINDOW 39 0 0 Left 2
SYMATTR InstName V1
SYMATTR Value 14.4
SYMBOL voltage 1376 1040 R0
WINDOW 0 14 10 Left 2
WINDOW 3 10 104 Left 2
SYMATTR InstName V2
SYMATTR Value PWL(0 0 1 15)
SYMBOL PMOS 1872 1072 R270
WINDOW 0 90 48 VCenter 2
WINDOW 3 63 45 VCenter 2
SYMATTR InstName Q2
SYMATTR Value FDC638P
TEXT 2200 1408 Left 2 !.tran 2
TEXT 1872 968 Bottom 2 ;LTC4412 - Low Loss PowerPath Controller in ThinSOT\nAutomatic Switchover of Load Between a Battery and a Wall Adapter\nInput: 3V to 28V
TEXT 1304 1432 Left 2 ;Note:\n  If the simulation model is not found please update with the "Sync Release" command from the "Tools" menu.\n  It remains the customer's responsibility to verify proper and reliable operation in the actual application.\n  Component substitution and printed circuit board layout may significantly affect circuit performance or reliability.\n  Contact your local sales representative for assistance. This circuit is distributed to customers only for use with LTC parts.\n  Copyright © 2012 Linear Technology Inc. All rights reserved.
