Version 4
SHEET 1 2460 1028
WIRE -112 -880 -192 -880
WIRE -96 -880 -112 -880
WIRE 0 -880 -16 -880
WIRE 80 -880 0 -880
WIRE 400 -880 80 -880
WIRE 896 -880 400 -880
WIRE -192 -864 -192 -880
WIRE 80 -864 80 -880
WIRE 800 -832 528 -832
WIRE 1216 -832 864 -832
WIRE 448 -784 432 -784
WIRE 528 -784 528 -832
WIRE 528 -784 512 -784
WIRE 576 -784 528 -784
WIRE 688 -784 640 -784
WIRE -192 -768 -192 -784
WIRE 80 -768 80 -800
WIRE 400 -736 400 -880
WIRE 528 -736 528 -784
WIRE 272 -688 32 -688
WIRE 688 -688 688 -784
WIRE 688 -688 656 -688
WIRE 896 -688 896 -880
WIRE 192 -608 176 -608
WIRE 272 -608 256 -608
WIRE 848 -608 656 -608
WIRE 272 -528 240 -528
WIRE 688 -528 688 -624
WIRE 688 -528 656 -528
WIRE 896 -528 896 -592
WIRE 896 -528 688 -528
WIRE 944 -528 896 -528
WIRE 992 -528 944 -528
WIRE 1104 -528 1072 -528
WIRE 1120 -528 1104 -528
WIRE 1216 -528 1216 -832
WIRE 1216 -528 1200 -528
WIRE 1264 -528 1216 -528
WIRE 1584 -528 1264 -528
WIRE 1904 -528 1680 -528
WIRE 2064 -528 1904 -528
WIRE 2128 -528 2064 -528
WIRE 1264 -512 1264 -528
WIRE 1904 -512 1904 -528
WIRE 2128 -512 2128 -528
WIRE 944 -496 944 -528
WIRE 144 -448 128 -448
WIRE 272 -448 224 -448
WIRE 848 -448 656 -448
WIRE 896 -416 896 -432
WIRE 944 -416 944 -432
WIRE 1264 -416 1264 -448
WIRE 2128 -416 2128 -432
WIRE 272 -368 80 -368
WIRE 1104 -368 1104 -528
WIRE 1104 -368 656 -368
WIRE 240 -288 240 -528
WIRE 272 -288 240 -288
WIRE 1216 -288 1216 -528
WIRE 1216 -288 656 -288
WIRE 400 -224 400 -240
WIRE 528 -224 528 -240
WIRE 128 -192 112 -192
WIRE 240 -192 240 -288
WIRE 240 -192 208 -192
WIRE 800 -192 240 -192
WIRE 1216 -192 1216 -288
WIRE 1216 -192 880 -192
WIRE 80 -128 80 -368
WIRE 1264 -128 80 -128
WIRE 1328 -128 1264 -128
WIRE 1440 -128 1408 -128
WIRE 80 -112 80 -128
WIRE 1440 -112 1440 -128
WIRE 2064 -96 2064 -528
WIRE 2064 -96 1744 -96
WIRE 2064 -80 2064 -96
WIRE 1264 -32 1264 -128
WIRE 1440 -32 1440 -48
WIRE 1584 -32 1584 -528
WIRE 1664 -32 1664 -480
WIRE 1744 -32 1744 -96
WIRE 80 -16 80 -48
WIRE 2064 16 2064 0
WIRE 2064 16 1840 16
WIRE 32 32 32 -688
WIRE 768 32 32 32
WIRE 1216 32 768 32
WIRE 2064 64 2064 16
WIRE 0 80 0 -880
WIRE 1216 80 0 80
WIRE 2016 80 1840 80
WIRE -112 112 -112 -880
WIRE 992 112 -112 112
WIRE 1120 112 992 112
WIRE 1216 112 1120 112
WIRE 992 128 992 112
WIRE 1120 128 1120 112
WIRE 2064 160 1840 160
WIRE 1120 208 1120 192
WIRE 1904 208 1904 -432
WIRE 1904 208 1840 208
WIRE 880 240 864 240
WIRE 992 240 992 208
WIRE 992 240 944 240
WIRE 1216 240 992 240
WIRE 768 256 768 32
WIRE 992 256 992 240
WIRE 1904 304 1904 288
WIRE 1904 304 1840 304
WIRE 1904 320 1904 304
WIRE 992 352 992 336
WIRE 1216 352 1184 352
WIRE 768 400 768 336
WIRE 832 400 768 400
WIRE 1216 400 912 400
WIRE 1904 400 1840 400
WIRE 1936 400 1904 400
WIRE 2064 400 2064 160
WIRE 2064 400 2016 400
WIRE 2160 400 2064 400
WIRE 2160 416 2160 400
WIRE 768 448 768 400
WIRE 912 448 768 448
WIRE 1216 448 992 448
WIRE 1024 496 1008 496
WIRE 1216 496 1088 496
WIRE 1904 512 1840 512
WIRE 2160 528 2160 480
WIRE 1120 544 1104 544
WIRE 1216 544 1184 544
WIRE 2160 624 2160 608
WIRE 1520 640 1520 624
WIRE 1584 640 1584 624
WIRE 1664 640 1664 624
WIRE 1296 656 1296 624
WIRE 1408 656 1408 624
WIRE 1744 672 1744 624
WIRE 1760 672 1744 672
WIRE 1840 672 1824 672
WIRE 1296 736 1296 720
WIRE 1520 736 1520 720
WIRE 1584 736 1584 720
WIRE 768 768 768 448
WIRE 1744 768 1744 672
WIRE 1744 768 768 768
WIRE 1776 768 1744 768
WIRE 1904 768 1904 512
WIRE 1904 768 1856 768
WIRE 1920 768 1904 768
WIRE 2016 768 2000 768
FLAG 896 -416 0
FLAG 528 -224 0
FLAG 1264 -416 0
FLAG 2128 -416 0
FLAG 2128 -528 OUT
FLAG 944 -416 0
FLAG 400 -224 0
FLAG 176 -608 0
FLAG 128 -448 0
FLAG 112 -192 0
FLAG 432 -784 0
FLAG 992 352 0
FLAG 1120 208 0
FLAG 1008 496 0
FLAG 1104 544 0
FLAG 2160 624 0
FLAG 1840 672 0
FLAG 2016 768 0
FLAG 80 -16 0
FLAG -192 -768 0
FLAG -192 -880 IN
FLAG 80 -768 0
FLAG 864 240 0
FLAG 1296 736 0
FLAG 1520 736 0
FLAG 1584 736 0
FLAG 1664 640 0
SYMBOL nmos 848 -688 R0
SYMATTR InstName Q1
SYMATTR Value BSC123N08NS3
SYMBOL nmos 848 -528 R0
WINDOW 0 -2 31 Right 2
WINDOW 3 32 98 Right 2
SYMATTR InstName Q2
SYMATTR Value BSC123N08NS3
SYMBOL schottky 576 -768 R270
WINDOW 0 32 32 VTop 2
WINDOW 3 0 32 VBottom 2
SYMATTR InstName D1
SYMATTR Value MBRS140
SYMATTR Description Diode
SYMATTR Type diode
SYMBOL cap 672 -688 R0
SYMATTR InstName C1
SYMATTR Value .1µ
SYMBOL cap 1424 -112 R0
WINDOW 39 24 77 Left 2
SYMATTR InstName C2
SYMATTR Value 47n
SYMBOL schottky 928 -432 M180
WINDOW 0 24 72 Left 2
WINDOW 3 24 4 Left 2
SYMATTR InstName D2
SYMATTR Value MBRS1100
SYMATTR Description Diode
SYMATTR Type diode
SYMBOL ind 976 -512 R270
WINDOW 0 32 56 VTop 2
WINDOW 3 5 56 VBottom 2
SYMATTR InstName L1
SYMATTR Value 10µ
SYMATTR SpiceLine Rpar=2K
SYMBOL res 1104 -512 R270
WINDOW 0 32 56 VTop 2
WINDOW 3 0 56 VBottom 2
SYMATTR InstName R1
SYMATTR Value 3m
SYMBOL res 240 -464 R90
WINDOW 0 0 56 VBottom 2
WINDOW 3 32 56 VTop 2
SYMATTR InstName R2
SYMATTR Value 49.9K
SYMBOL cap 256 -624 R90
WINDOW 0 0 32 VBottom 2
WINDOW 3 32 32 VTop 2
SYMATTR InstName C3
SYMATTR Value .002µ
SYMBOL cap 1248 -512 R0
SYMATTR InstName C4
SYMATTR Value 100µ
SYMBOL diode 864 -848 R90
WINDOW 0 0 32 VBottom 2
WINDOW 3 32 32 VTop 2
SYMATTR InstName D3
SYMATTR Value 1N4148
SYMBOL res 784 -176 R270
WINDOW 0 32 56 VTop 2
WINDOW 3 0 56 VBottom 2
SYMATTR InstName R3
SYMATTR Value 150K
SYMBOL res 112 -176 R270
WINDOW 0 32 56 VTop 2
WINDOW 3 0 56 VBottom 2
SYMATTR InstName R4
SYMATTR Value 16.2K
SYMBOL cap 512 -800 R90
WINDOW 0 0 32 VBottom 2
WINDOW 3 32 32 VTop 2
SYMATTR InstName C5
SYMATTR Value 1µ
SYMBOL PowerProducts\\LT3845A 464 -496 R0
SYMATTR InstName U1
SYMBOL res 752 352 M180
WINDOW 0 36 76 Left 2
WINDOW 3 36 40 Left 2
SYMATTR InstName R5
SYMATTR Value 1Meg
SYMBOL res 976 112 R0
SYMATTR InstName R6
SYMATTR Value 1.1Meg
SYMBOL res 976 240 R0
SYMATTR InstName R7
SYMATTR Value 100K
SYMBOL cap 1104 128 R0
SYMATTR InstName C6
SYMATTR Value 1µ
SYMBOL cap 1088 480 R90
WINDOW 0 0 32 VBottom 2
WINDOW 3 32 32 VTop 2
SYMATTR InstName C7
SYMATTR Value 10n
SYMBOL cap 1184 528 R90
WINDOW 0 0 32 VBottom 2
WINDOW 3 32 32 VTop 2
SYMATTR InstName C8
SYMATTR Value 10n
SYMBOL pmos 1584 -480 R270
WINDOW 0 52 46 VTop 2
WINDOW 3 15 102 VRight 2
SYMATTR InstName Q3
SYMATTR Value Si4427DY
SYMBOL pmos 2016 160 M180
WINDOW 0 58 69 Left 2
WINDOW 3 58 33 Left 2
SYMATTR InstName Q4
SYMATTR Value Si4427DY
SYMBOL res 1888 -528 R0
SYMATTR InstName R8
SYMATTR Value 1.15Meg
SYMBOL res 1888 192 R0
SYMATTR InstName R9
SYMATTR Value 127K
SYMBOL res 1888 304 R0
WINDOW 0 30 12 Left 2
WINDOW 3 33 38 Left 2
SYMATTR InstName R10
SYMATTR Value 133K
SYMBOL res 2032 384 R90
WINDOW 0 0 56 VBottom 2
WINDOW 3 32 56 VTop 2
SYMATTR InstName R11
SYMATTR Value 1.13Meg
SYMBOL voltage 2160 512 R0
WINDOW 3 25 101 Left 2
SYMATTR Value 7.35
SYMATTR InstName V1
SYMBOL cap 1760 688 R270
WINDOW 0 32 32 VTop 2
WINDOW 3 0 32 VBottom 2
SYMATTR InstName C9
SYMATTR Value 1µ
SYMBOL res 2016 752 R90
WINDOW 0 0 56 VBottom 2
WINDOW 3 32 56 VTop 2
SYMATTR InstName R12
SYMATTR Value 10K
SYMBOL res 1568 736 M180
WINDOW 0 36 76 Left 2
WINDOW 3 36 40 Left 2
SYMATTR InstName R13
SYMATTR Value 22.1K
SYMBOL res 1536 736 R180
WINDOW 0 36 76 Left 2
WINDOW 3 36 40 Left 2
SYMATTR InstName R14
SYMATTR Value 24.9K
SYMBOL cap 1280 656 R0
SYMATTR InstName C10
SYMATTR Value 0.0047µ
SYMBOL res 2048 -96 R0
SYMATTR InstName R15
SYMATTR Value 5m
SYMBOL cap 64 -112 R0
WINDOW 39 24 68 Left 2
WINDOW 3 42 33 Left 2
SYMATTR SpiceLine Rser=20K Cpar=100p
SYMATTR Value 2200p
SYMATTR InstName C11
SYMBOL cap 2144 416 R0
WINDOW 39 28 65 Left 2
WINDOW 3 39 32 Left 2
SYMATTR SpiceLine Rser=1m
SYMATTR Value 10m
SYMATTR InstName C12
SYMBOL zener 880 256 R270
WINDOW 0 36 32 VTop 2
WINDOW 3 -4 32 VBottom 2
SYMATTR InstName D4
SYMATTR Value 2V
SYMATTR Description Diode
SYMATTR Type diode
SYMBOL LTC4000 1264 272 R0
SYMATTR InstName U2
SYMATTR SpiceLine period=2
SYMBOL voltage -192 -880 R0
WINDOW 3 25 101 Left 2
SYMATTR Value 36
SYMATTR InstName V2
SYMBOL res -112 -864 R270
WINDOW 0 32 56 VTop 2
WINDOW 3 0 56 VBottom 2
SYMATTR InstName R16
SYMATTR Value 5m
SYMBOL cap 64 -864 R0
WINDOW 39 24 77 Left 2
SYMATTR InstName C13
SYMATTR Value 100µ
SYMBOL res 1424 -144 R90
WINDOW 0 0 56 VBottom 2
WINDOW 3 32 56 VTop 2
SYMATTR InstName R17
SYMATTR Value 14.7K
SYMBOL res 928 384 R90
WINDOW 0 0 56 VBottom 2
WINDOW 3 32 56 VTop 2
SYMATTR InstName R18
SYMATTR Value 100K
SYMBOL res 1008 432 R90
WINDOW 0 0 56 VBottom 2
WINDOW 3 32 56 VTop 2
SYMATTR InstName R19
SYMATTR Value 100K
SYMBOL res 1872 752 R90
WINDOW 0 0 56 VBottom 2
WINDOW 3 32 56 VTop 2
SYMATTR InstName R20
SYMATTR Value 10K
SYMBOL res 2112 -528 R0
SYMATTR InstName Rload
SYMATTR Value 10
TEXT -112 144 Left 2 !.tran 5m startup
TEXT -112 176 Left 2 !.model 2V D(Ron=100 Roff=1G epsilon=.1 Vrev=2 revepsilon=.1)
TEXT 984 -888 Bottom 2 ;LTC4000 - High Voltage High Current Controller for Battery Charging and Power Management & LT3845A - High Voltage Synchronous Current Mode Step-Down Controller with Adjustable Operating Frequency\nHigh Voltage, High Current Buck Converter Charger for 3-Series LiFePO4 Battery Pack\nInput: 15V to 60V     Output: 12V @ 15A & 10.8V Battery Float Voltage @ 10A Max Charge Current with 2.9hrs Timer Termination
TEXT 192 760 Left 2 ;Note:\n  If the simulation model is not found please update with the "Sync Release" command from the "Tools" menu.\n  It remains the customer's responsibility to verify proper and reliable operation in the actual application.\n  Component substitution and printed circuit board layout may significantly affect circuit performance or reliability.\n  Contact your local sales representative for assistance. This circuit is distributed to customers only for use with LTC parts.\n  Copyright © 2012 Linear Technology Inc. All rights reserved.
TEXT 2184 384 Bottom 3 ;BATTERY
RECTANGLE Normal 2304 672 2080 320 2
