Version 4
SHEET 1 5320 2776
WIRE 1392 800 1392 784
WIRE 1584 800 1392 800
WIRE 2160 800 1584 800
WIRE 2704 800 2160 800
WIRE 2816 800 2704 800
WIRE 2992 800 2816 800
WIRE 3088 800 2992 800
WIRE 3168 800 3088 800
WIRE 3232 800 3168 800
WIRE 3376 800 3232 800
WIRE 3504 800 3376 800
WIRE 2160 816 2160 800
WIRE 1584 832 1584 800
WIRE 2704 832 2704 800
WIRE 2816 832 2816 800
WIRE 2992 832 2992 800
WIRE 3376 896 3376 800
WIRE 2160 912 2160 896
WIRE 2224 912 2160 912
WIRE 2320 912 2288 912
WIRE 3232 912 3232 800
WIRE 3328 912 3232 912
WIRE 1584 928 1584 912
WIRE 1584 928 1488 928
WIRE 1680 928 1584 928
WIRE 1584 944 1584 928
WIRE 1488 960 1488 928
WIRE 2160 960 2160 912
WIRE 2704 960 2704 912
WIRE 3328 960 2704 960
WIRE 1680 992 1680 928
WIRE 1792 992 1680 992
WIRE 2560 992 2528 992
WIRE 3232 1024 3232 912
WIRE 1584 1040 1584 1024
WIRE 1792 1040 1584 1040
WIRE 2704 1040 2704 960
WIRE 2704 1040 2528 1040
WIRE 3168 1040 3168 800
WIRE 3184 1040 3168 1040
WIRE 3504 1040 3504 800
WIRE 1584 1056 1584 1040
WIRE 3680 1056 3552 1056
WIRE 1392 1072 1392 800
WIRE 3680 1072 3680 1056
WIRE 1792 1088 1680 1088
WIRE 2816 1088 2816 912
WIRE 2816 1088 2528 1088
WIRE 3184 1088 2816 1088
WIRE 3600 1104 3552 1104
WIRE 1792 1136 1728 1136
WIRE 2816 1136 2528 1136
WIRE 2848 1136 2816 1136
WIRE 2944 1136 2912 1136
WIRE 1584 1152 1584 1136
WIRE 1680 1152 1680 1088
WIRE 1680 1152 1584 1152
WIRE 1584 1168 1584 1152
WIRE 3680 1168 3680 1152
WIRE 1728 1184 1728 1136
WIRE 1792 1184 1728 1184
WIRE 2704 1184 2528 1184
WIRE 2816 1216 2816 1136
WIRE 2224 1264 2224 1248
WIRE 2560 1264 2560 992
WIRE 2560 1264 2224 1264
WIRE 3088 1264 3088 800
WIRE 3232 1264 3232 1104
WIRE 3376 1264 3376 976
WIRE 1728 1296 1728 1184
WIRE 1840 1296 1840 1248
WIRE 1968 1296 1968 1248
WIRE 2480 1312 2480 1248
WIRE 2496 1312 2480 1312
WIRE 2592 1312 2576 1312
WIRE 2672 1312 2656 1312
WIRE 2704 1328 2704 1184
WIRE 2816 1328 2816 1296
WIRE 2480 1392 2480 1312
WIRE 1392 1440 1392 1152
WIRE 1488 1440 1488 1024
WIRE 1488 1440 1392 1440
WIRE 1584 1440 1584 1248
WIRE 1584 1440 1488 1440
WIRE 1728 1440 1728 1360
WIRE 1728 1440 1584 1440
WIRE 1840 1440 1840 1360
WIRE 1840 1440 1728 1440
WIRE 1968 1440 1968 1360
WIRE 1968 1440 1840 1440
WIRE 2096 1440 2096 1248
WIRE 2096 1440 1968 1440
WIRE 2224 1440 2224 1264
WIRE 2224 1440 2096 1440
WIRE 2240 1440 2224 1440
WIRE 2352 1440 2352 1248
WIRE 2352 1440 2320 1440
WIRE 2464 1440 2352 1440
WIRE 2704 1440 2704 1408
WIRE 2704 1440 2560 1440
WIRE 2816 1440 2816 1392
WIRE 2816 1440 2704 1440
WIRE 2992 1440 2992 896
WIRE 2992 1440 2816 1440
WIRE 3088 1440 3088 1344
WIRE 3088 1440 2992 1440
WIRE 3232 1440 3232 1344
WIRE 3232 1440 3088 1440
WIRE 3376 1440 3376 1344
WIRE 3376 1440 3232 1440
WIRE 3504 1440 3504 1120
WIRE 3504 1440 3376 1440
FLAG 3504 1440 OUT
FLAG 3504 800 RTN
FLAG 2320 912 0
FLAG 2672 1312 0
FLAG 2944 1136 0
FLAG 3600 1104 0
FLAG 1392 784 0
FLAG 3680 1168 0
FLAG 1392 1440 IN
SYMBOL SW 3504 1136 R180
WINDOW 0 -15 106 Right 2
WINDOW 3 -8 9 Right 2
SYMATTR InstName S1
SYMATTR Value SHORT
SYMBOL SW 3232 1120 M180
WINDOW 0 7 100 Left 2
WINDOW 3 8 11 Left 2
SYMATTR InstName S2
SYMATTR Value LOAD
SYMBOL SW 3376 992 M180
WINDOW 0 8 105 Left 2
WINDOW 3 15 15 Left 2
SYMATTR InstName S3
SYMATTR Value LOAD
SYMBOL voltage 1392 1056 R0
WINDOW 123 24 138 Left 2
WINDOW 39 24 117 Left 2
SYMATTR Value 48
SYMATTR InstName V1
SYMBOL voltage 3680 1056 R0
WINDOW 123 0 0 Left 2
WINDOW 39 0 0 Left 2
SYMATTR Value PWL(250m 0 +20u 1 +20m 1 +20u 0)
SYMATTR InstName V2
SYMBOL cap 1472 960 R0
SYMATTR InstName C1
SYMATTR Value .01µ
SYMBOL res 1568 816 R0
SYMATTR InstName R1
SYMATTR Value 453K
SYMBOL res 1568 928 R0
SYMATTR InstName R2
SYMATTR Value 1
SYMBOL res 1568 1040 R0
SYMATTR InstName R3
SYMATTR Value 16.9K
SYMBOL res 1568 1152 R0
SYMATTR InstName R4
SYMATTR Value 11.8K
SYMBOL cap 1712 1296 R0
SYMATTR InstName C2
SYMATTR Value .1µ
SYMBOL res 2336 1424 R90
WINDOW 0 0 56 VBottom 2
WINDOW 3 32 56 VTop 2
SYMATTR InstName R5
SYMATTR Value .008
SYMBOL res 2480 1328 R270
WINDOW 0 32 56 VTop 2
WINDOW 3 0 56 VBottom 2
SYMATTR InstName R6
SYMATTR Value 10
SYMBOL nmos 2560 1392 R90
WINDOW 0 -19 28 VRight 2
WINDOW 3 74 -13 VRight 2
SYMATTR InstName Q1
SYMATTR Value IRF1310
SYMATTR Prefix ""
SYMBOL cap 2656 1328 M270
WINDOW 0 32 32 VTop 2
WINDOW 3 0 32 VBottom 2
SYMATTR InstName C3
SYMATTR Value .047µ
SYMBOL cap 2224 928 R270
WINDOW 0 32 32 VTop 2
WINDOW 3 0 32 VBottom 2
SYMATTR InstName C4
SYMATTR Value 1µ
SYMBOL res 2144 800 R0
SYMATTR InstName R7
SYMATTR Value 4K
SYMBOL res 2688 816 R0
SYMATTR InstName R8
SYMATTR Value 24K
SYMBOL res 2800 816 R0
SYMATTR InstName R9
SYMATTR Value 24K
SYMBOL cap 2976 832 R0
SYMATTR InstName C5
SYMATTR Value 330µ
SYMBOL cap 1824 1296 R0
SYMATTR InstName C6
SYMATTR Value .220µ
SYMBOL cap 1952 1296 R0
SYMATTR InstName C7
SYMATTR Value .047µ
SYMBOL cap 2912 1152 M270
WINDOW 0 32 32 VTop 2
WINDOW 3 0 32 VBottom 2
SYMATTR InstName C8
SYMATTR Value .033µ
SYMBOL res 2800 1200 R0
SYMATTR InstName R10
SYMATTR Value 1K
SYMBOL res 2688 1312 R0
SYMATTR InstName R11
SYMATTR Value 1Meg
SYMBOL cap 2800 1328 R0
SYMATTR InstName C9
SYMATTR Value .01µ
SYMBOL PowerProducts\\LTC4261 2160 1072 R0
SYMATTR InstName U1
SYMBOL res 3216 1248 R0
SYMATTR InstName Rload2
SYMATTR Value 35
SYMBOL res 3360 1248 R0
SYMATTR InstName Rload3
SYMATTR Value 35
SYMBOL res 3072 1248 R0
SYMATTR InstName Rload1
SYMATTR Value 35
TEXT 3328 1584 Left 2 !.tran 300m startup
TEXT 3328 1552 Left 2 !.model SHORT SW(Ron=5 Roff=1G Vt=.5 Vh=-.4)
TEXT 3328 1520 Left 2 !.model LOAD SW(Ron=1m Roff=1G Vt=5 Vh=-1)
TEXT 2432 768 Bottom 2 ;LTC4261 - Negative Voltage Hot Swap Controllers with ADC and I²C Monitoring\n-48V/200W Hot Swap Controller with I2C and ADC
TEXT 1704 1480 Left 2 ;Note:\n  If the simulation model is not found please update with the "Sync Release" command from the "Tools" menu.\n  It remains the customer's responsibility to verify proper and reliable operation in the actual application.\n  Component substitution and printed circuit board layout may significantly affect circuit performance or reliability.\n  Contact your local sales representative for assistance. This circuit is distributed to customers only for use with LTC parts.\n  Copyright © 2014 Linear Technology Inc. All rights reserved.
