Version 4
SHEET 1 3216 1052
WIRE 2064 -560 -208 -560
WIRE 1152 -544 -352 -544
WIRE 1120 -528 -240 -528
WIRE 128 -512 -192 -512
WIRE -352 -496 -352 -544
WIRE -352 -496 -624 -496
WIRE -336 -496 -352 -496
WIRE -240 -496 -240 -528
WIRE -240 -496 -256 -496
WIRE 688 -496 -240 -496
WIRE -624 -480 -624 -496
WIRE -80 -480 -160 -480
WIRE -48 -480 -80 -480
WIRE 272 -480 -48 -480
WIRE 544 -480 272 -480
WIRE -160 -448 -160 -480
WIRE -48 -448 -48 -480
WIRE 1264 -448 992 -448
WIRE 1440 -448 1264 -448
WIRE 1584 -448 1440 -448
WIRE 1712 -448 1680 -448
WIRE 1904 -448 1712 -448
WIRE 1984 -448 1904 -448
WIRE 2064 -448 2064 -560
WIRE 2064 -448 1984 -448
WIRE 128 -432 128 -512
WIRE 272 -432 272 -480
WIRE 416 -432 416 -448
WIRE 1264 -432 1264 -448
WIRE 1984 -416 1984 -448
WIRE 1712 -400 1712 -448
WIRE -624 -384 -624 -400
WIRE -160 -368 -160 -384
WIRE -192 -352 -192 -512
WIRE -192 -352 -464 -352
WIRE -48 -352 -48 -368
WIRE 48 -352 -48 -352
WIRE 560 -352 496 -352
WIRE 656 -352 640 -352
WIRE -464 -336 -464 -352
WIRE 992 -336 992 -448
WIRE 992 -336 896 -336
WIRE 1264 -336 1264 -368
WIRE 1984 -320 1984 -352
WIRE 896 -304 896 -336
WIRE 1664 -288 1664 -400
WIRE 1712 -288 1712 -320
WIRE 1712 -288 1664 -288
WIRE 1904 -272 1904 -448
WIRE 48 -256 16 -256
WIRE 592 -256 496 -256
WIRE 608 -256 592 -256
WIRE -624 -240 -624 -256
WIRE -208 -240 -208 -560
WIRE 688 -240 688 -496
WIRE -464 -224 -464 -256
WIRE 896 -208 896 -224
WIRE 896 -208 848 -208
WIRE 896 -192 896 -208
WIRE 48 -160 -160 -160
WIRE 640 -160 496 -160
WIRE -80 -144 -80 -480
WIRE 544 -144 544 -480
WIRE -624 -128 -624 -160
WIRE 1264 -128 1088 -128
WIRE 1312 -128 1264 -128
WIRE 1440 -128 1392 -128
WIRE 1440 -112 1440 -128
WIRE 896 -96 896 -112
WIRE 2064 -96 2064 -448
WIRE 2064 -96 1744 -96
WIRE 2064 -80 2064 -96
WIRE -80 -64 -80 -80
WIRE 48 -64 -80 -64
WIRE 544 -64 544 -80
WIRE 544 -64 496 -64
WIRE -80 -48 -80 -64
WIRE 544 -48 544 -64
WIRE 1264 -32 1264 -128
WIRE 1440 -32 1440 -48
WIRE 1584 -32 1584 -448
WIRE 1664 -32 1664 -288
WIRE 1744 -32 1744 -96
WIRE 2064 16 2064 0
WIRE 2064 16 1840 16
WIRE -640 32 -784 32
WIRE -560 32 -640 32
WIRE -512 32 -560 32
WIRE -496 32 -512 32
WIRE -400 32 -416 32
WIRE -336 32 -400 32
WIRE -208 32 -208 -144
WIRE -208 32 -256 32
WIRE -80 32 -80 16
WIRE -80 32 -208 32
WIRE 48 32 -80 32
WIRE 544 32 544 16
WIRE 544 32 496 32
WIRE 688 32 688 -144
WIRE 688 32 544 32
WIRE 736 32 688 32
WIRE 880 32 816 32
WIRE 896 32 880 32
WIRE 992 32 992 -336
WIRE 992 32 976 32
WIRE 1216 32 1200 32
WIRE -784 48 -784 32
WIRE -640 48 -640 32
WIRE -208 48 -208 32
WIRE 688 48 688 32
WIRE 2064 64 2064 16
WIRE 1120 80 1120 -528
WIRE 1216 80 1120 80
WIRE 2016 80 1840 80
WIRE 1152 112 1152 -544
WIRE 1216 112 1152 112
WIRE 48 128 -160 128
WIRE 640 128 496 128
WIRE 1152 128 1152 112
WIRE -784 144 -784 128
WIRE -640 144 -640 112
WIRE -208 160 -208 144
WIRE 688 160 688 144
WIRE 2064 160 1840 160
WIRE 1152 208 1152 192
WIRE 1904 208 1904 -192
WIRE 1904 208 1840 208
WIRE -400 224 -400 32
WIRE 48 224 -400 224
WIRE 880 224 880 32
WIRE 880 224 496 224
WIRE 1216 240 1152 240
WIRE 1088 272 1088 -128
WIRE 1088 272 608 272
WIRE 1904 304 1904 288
WIRE 1904 304 1840 304
WIRE -560 320 -560 32
WIRE -512 320 -512 32
WIRE 48 320 -512 320
WIRE 992 320 992 32
WIRE 992 320 496 320
WIRE 1904 320 1904 304
WIRE 1152 352 1152 240
WIRE 1152 352 880 352
WIRE 880 400 880 352
WIRE 896 400 880 400
WIRE 1216 400 976 400
WIRE 1904 400 1840 400
WIRE 1936 400 1904 400
WIRE 2064 400 2064 160
WIRE 2064 400 2016 400
WIRE 2160 400 2064 400
WIRE -560 416 -560 400
WIRE 48 416 -560 416
WIRE 848 416 848 -208
WIRE 848 416 496 416
WIRE 2160 416 2160 400
WIRE -560 432 -560 416
WIRE 880 448 880 400
WIRE 976 448 880 448
WIRE 1216 448 1056 448
WIRE 1088 496 1072 496
WIRE 1216 496 1152 496
WIRE -208 512 -256 512
WIRE -96 512 -128 512
WIRE 48 512 -96 512
WIRE 608 512 608 272
WIRE 608 512 496 512
WIRE 656 512 608 512
WIRE 768 512 736 512
WIRE 1856 512 1840 512
WIRE -560 528 -560 512
WIRE -256 528 -256 512
WIRE -96 528 -96 512
WIRE 608 528 608 512
WIRE 768 528 768 512
WIRE 2160 528 2160 496
WIRE 1136 544 1072 544
WIRE 1216 544 1200 544
WIRE -256 608 -256 592
WIRE -96 608 -96 592
WIRE 48 608 -32 608
WIRE 528 608 496 608
WIRE 608 608 608 592
WIRE 768 608 768 592
WIRE -32 624 -32 608
WIRE 528 624 528 608
WIRE 2160 624 2160 608
WIRE 1520 640 1520 624
WIRE 1584 640 1584 624
WIRE 1664 640 1664 624
WIRE 1744 672 1744 624
WIRE 1760 672 1744 672
WIRE 1840 672 1824 672
WIRE 128 688 128 672
WIRE 272 688 272 672
WIRE 416 688 416 672
WIRE -32 704 -32 688
WIRE 528 704 528 688
WIRE 1520 736 1520 720
WIRE 1584 736 1584 720
WIRE 880 768 880 448
WIRE 1296 768 1296 624
WIRE 1296 768 880 768
WIRE 1744 768 1744 672
WIRE 1744 768 1296 768
FLAG 1264 -336 0
FLAG 1152 208 0
FLAG 1072 544 0
FLAG 2160 624 0
FLAG 1840 672 0
FLAG -624 -384 0
FLAG -624 -496 IN
FLAG 1520 736 0
FLAG 1584 736 0
FLAG 1664 640 0
FLAG 128 688 0
FLAG 416 688 0
FLAG 688 160 0
FLAG -160 -368 0
FLAG 896 -96 0
FLAG 768 608 0
FLAG 528 704 0
FLAG -208 160 0
FLAG -640 144 0
FLAG -560 528 0
FLAG -784 144 0
FLAG -256 608 0
FLAG -32 704 0
FLAG -784 32 OUT_LOAD
FLAG 656 -352 0
FLAG 1200 32 0
FLAG 1440 -448 OUT
FLAG 416 -448 0
FLAG -464 -224 0
FLAG -624 -128 0
FLAG -624 -256 RUNS
FLAG 16 -256 RUNS
FLAG 592 -256 RUNS
FLAG 1984 -320 0
FLAG -96 608 0
FLAG 608 608 0
FLAG 1072 496 0
FLAG 2064 400 BAT
SYMBOL cap 1424 -112 R0
WINDOW 39 24 77 Left 2
SYMATTR InstName C2
SYMATTR Value 0.1µ
SYMBOL cap 1248 -432 R0
SYMATTR InstName C4
SYMATTR Value 22µ
SYMBOL cap 1136 128 R0
SYMATTR InstName C6
SYMATTR Value 1µ
SYMBOL cap 1152 480 R90
WINDOW 0 0 32 VBottom 2
WINDOW 3 32 32 VTop 2
SYMATTR InstName C7
SYMATTR Value 1n
SYMBOL cap 1200 528 R90
WINDOW 0 0 32 VBottom 2
WINDOW 3 32 32 VTop 2
SYMATTR InstName C8
SYMATTR Value 1n
SYMBOL pmos 1584 -400 R270
WINDOW 0 52 46 VTop 2
WINDOW 3 20 -122 VRight 2
SYMATTR InstName Q1
SYMATTR Value Si4427DY
SYMBOL pmos 2016 160 M180
WINDOW 0 58 69 Left 2
WINDOW 3 58 33 Left 2
SYMATTR InstName Q2
SYMATTR Value Si4427DY
SYMBOL res 1888 -288 R0
SYMATTR InstName RO1
SYMATTR Value 499K
SYMBOL res 1888 192 R0
SYMATTR InstName RO2
SYMATTR Value 35.7K
SYMBOL res 1888 304 R0
WINDOW 0 30 12 Left 2
WINDOW 3 33 38 Left 2
SYMATTR InstName RB2
SYMATTR Value 36.5K
SYMBOL res 2032 384 R90
WINDOW 0 0 56 VBottom 2
WINDOW 3 32 56 VTop 2
SYMATTR InstName RB1
SYMATTR Value 499K
SYMBOL voltage 2160 512 R0
WINDOW 3 25 101 Left 2
WINDOW 123 0 0 Left 2
WINDOW 39 0 0 Left 2
SYMATTR Value 12.5
SYMATTR InstName VB
SYMBOL cap 1760 688 R270
WINDOW 0 32 32 VTop 2
WINDOW 3 0 32 VBottom 2
SYMATTR InstName C9
SYMATTR Value 1µ
SYMBOL res 1568 736 M180
WINDOW 0 36 76 Left 2
WINDOW 3 36 40 Left 2
SYMATTR InstName RCX
SYMATTR Value 22.1K
SYMBOL res 1536 736 R180
WINDOW 0 36 76 Left 2
WINDOW 3 36 40 Left 2
SYMATTR InstName RCL
SYMATTR Value 19.1K
SYMBOL res 2048 -96 R0
SYMATTR InstName RS2
SYMATTR Value 12m
SYMBOL LTC4000 1264 272 R0
SYMATTR InstName U2
SYMBOL voltage -624 -496 R0
WINDOW 3 31 99 Left 2
WINDOW 123 0 0 Left 2
WINDOW 39 0 0 Left 2
SYMATTR Value PWL(0 36 1m 36 1.5m 0)
SYMATTR InstName V1
SYMBOL res -352 -480 R270
WINDOW 0 32 56 VTop 2
WINDOW 3 0 56 VBottom 2
SYMATTR InstName RS1
SYMATTR Value 5m
SYMBOL res 1408 -144 R90
WINDOW 0 0 56 VBottom 2
WINDOW 3 32 56 VTop 2
SYMATTR InstName R17
SYMATTR Value 14.7K
SYMBOL res 992 384 R90
WINDOW 0 0 56 VBottom 2
WINDOW 3 32 56 VTop 2
SYMATTR InstName R18
SYMATTR Value 100K
SYMBOL res 1072 432 R90
WINDOW 0 0 56 VBottom 2
WINDOW 3 32 56 VTop 2
SYMATTR InstName R19
SYMATTR Value 100K
SYMBOL nmos 640 -240 R0
WINDOW 0 58 49 Left 2
WINDOW 3 67 10 Left 2
SYMATTR InstName Q3
SYMATTR Value RJK0651DPB
SYMBOL diode 528 -144 R0
SYMATTR InstName D5
SYMATTR Value 1N4148
SYMBOL cap -176 -448 R0
SYMATTR InstName C1
SYMATTR Value 4.7µ
SYMBOL cap 528 -48 R0
SYMATTR InstName C3
SYMATTR Value .1µ
SYMBOL ind 720 48 R270
WINDOW 0 32 56 VTop 2
WINDOW 3 5 56 VBottom 2
SYMATTR InstName L2
SYMATTR Value 15µ
SYMATTR SpiceLine Rser=10m
SYMBOL res 880 48 R270
WINDOW 0 32 56 VTop 2
WINDOW 3 0 56 VBottom 2
SYMATTR InstName R2
SYMATTR Value .003
SYMBOL res 880 -320 R0
SYMATTR InstName RF1
SYMATTR Value 499K
SYMBOL res 880 -208 R0
SYMATTR InstName RF2
SYMATTR Value 18.7K
SYMBOL cap 512 624 R0
SYMATTR InstName C14
SYMATTR Value .001µ
SYMBOL diode -96 -144 R0
SYMATTR InstName D6
SYMATTR Value 1N4148
SYMBOL cap -96 -48 R0
SYMATTR InstName C15
SYMATTR Value .1µ
SYMBOL ind -240 48 M270
WINDOW 0 32 56 VTop 2
WINDOW 3 5 56 VBottom 2
SYMATTR InstName L3
SYMATTR Value 15µ
SYMATTR SpiceLine Rser=5.75m
SYMBOL res -400 48 M270
WINDOW 0 32 56 VTop 2
WINDOW 3 0 56 VBottom 2
SYMATTR InstName R22
SYMATTR Value .008
SYMBOL polcap -656 48 R0
WINDOW 3 24 56 Left 2
SYMATTR Value 220µ
SYMATTR InstName C16
SYMATTR Description Capacitor
SYMATTR Type cap
SYMATTR SpiceLine V=6.3 Irms=4.1 Rser=0.01 Lser=0
SYMBOL res -576 304 R0
SYMATTR InstName ROT
SYMATTR Value 499K
SYMBOL res -576 416 R0
SYMATTR InstName ROB
SYMATTR Value 162K
SYMBOL cap -48 624 R0
SYMATTR InstName C18
SYMATTR Value .001µ
SYMBOL res -800 32 R0
SYMATTR InstName Rload2
SYMATTR Value 6
SYMBOL LTC3890-3 272 128 R0
SYMATTR InstName U1
SYMBOL res -64 -464 R0
SYMATTR InstName R25
SYMATTR Value 100K
SYMBOL res 544 -336 R270
WINDOW 0 32 56 VTop 2
WINDOW 3 0 56 VBottom 2
SYMATTR InstName R26
SYMATTR Value 37.4K
SYMBOL nmos 640 48 R0
WINDOW 3 -123 109 Left 2
SYMATTR Value RJK0651DPB
SYMATTR InstName Q4
SYMBOL nmos -160 -240 M0
SYMATTR InstName Q7
SYMATTR Value RJK0651DPB
SYMBOL nmos -160 48 M0
SYMATTR InstName Q8
SYMATTR Value RJK0651DPB
SYMBOL res 1696 -416 R0
SYMATTR InstName R1
SYMATTR Value 100K
SYMBOL cap 752 592 M180
WINDOW 0 24 56 Left 2
WINDOW 3 24 8 Left 2
SYMATTR InstName C5
SYMATTR Value 2.2n
SYMBOL res 752 496 R90
WINDOW 0 0 56 VBottom 2
WINDOW 3 34 48 VTop 2
SYMATTR InstName R3
SYMATTR Value 15K
SYMBOL cap 592 592 M180
WINDOW 0 24 56 Left 2
WINDOW 3 24 8 Left 2
SYMATTR InstName C10
SYMATTR Value 100p
SYMBOL cap -272 528 R0
SYMATTR InstName C11
SYMATTR Value 4.7n
SYMBOL res -112 496 R90
WINDOW 0 0 56 VBottom 2
WINDOW 3 32 56 VTop 2
SYMATTR InstName R8
SYMATTR Value 15K
SYMBOL cap -112 528 R0
SYMATTR InstName C13
SYMATTR Value 100p
SYMBOL res 2144 400 R0
SYMATTR InstName R9
SYMATTR Value 0.1
SYMBOL voltage -464 -352 R0
WINDOW 123 0 0 Left 2
WINDOW 39 0 0 Left 2
SYMATTR InstName V2
SYMATTR Value 12
SYMBOL voltage -624 -256 R0
WINDOW 123 0 0 Left 2
WINDOW 39 0 0 Left 2
SYMATTR InstName V3
SYMATTR Value 3
SYMBOL polcap 1968 -416 R0
SYMATTR InstName C12
SYMATTR Value 150µ
TEXT 1752 792 Left 2 !.tran 0 2m 0 0.9m startup uic
TEXT 816 -576 Bottom 2 ;LTC3890-3 - 60V Low IQ, Dual, 2-Phase Synchronous Step-Down DC/DC Controller\nLTC4000 - High Voltage High Current Controller for Battery Charging and Power Management\n60V Input DC/DC Power Supply with Battery Backup\nInput: 18V to 60V     Output: 3.3V @ 2A, Fsw = 200kHz, Vfloat = 14.4V
TEXT 2184 384 Bottom 3 ;BATTERY
TEXT 56 776 Left 2 ;Notes:\n  When the input is present one half of the LTC3890-3 functions as battery charger and second half as DC/DC converter.\n  When input is disconnected, then battery supplies DC/DC converter and load.\n  LTC4000 controls LTC3890-3 through Ith pin during the charging process. \n  SS capacitors have been reduced to speed up simulation time. Typical values should be 0.1µF.\n  If the simulation model is not found please update with the "Sync Release" command from the "Tools" menu.\n  It remains the customer's responsibility to verify proper and reliable operation in the actual application.\n  Component substitution and printed circuit board layout may significantly affect circuit performance or reliability.\n  Contact your local sales representative for assistance. This circuit is distributed to customers only for use with LTC parts.\n  Copyright © 2015 Linear Technology Inc. All rights reserved.
RECTANGLE Normal 2304 672 2080 320 2
