Version 4
SHEET 1 2936 1248
WIRE -448 -880 -576 -880
WIRE -304 -880 -368 -880
WIRE -144 -880 -224 -880
WIRE -128 -880 -144 -880
WIRE -32 -880 -48 -880
WIRE 32 -880 -32 -880
WIRE 432 -880 32 -880
WIRE 928 -880 432 -880
WIRE -576 -864 -576 -880
WIRE 32 -864 32 -880
WIRE 1040 -832 560 -832
WIRE 1264 -832 1104 -832
WIRE 480 -784 464 -784
WIRE 560 -784 560 -832
WIRE 560 -784 544 -784
WIRE 640 -784 560 -784
WIRE 784 -784 704 -784
WIRE -576 -768 -576 -784
WIRE 32 -768 32 -800
WIRE 432 -736 432 -880
WIRE 560 -736 560 -784
WIRE 304 -688 32 -688
WIRE 784 -688 784 -784
WIRE 784 -688 688 -688
WIRE 928 -688 928 -880
WIRE 208 -608 192 -608
WIRE 304 -608 272 -608
WIRE 880 -608 688 -608
WIRE 304 -528 272 -528
WIRE 784 -528 784 -624
WIRE 784 -528 688 -528
WIRE 928 -528 928 -592
WIRE 928 -528 784 -528
WIRE 976 -528 928 -528
WIRE 1024 -528 976 -528
WIRE 1136 -528 1104 -528
WIRE 1152 -528 1136 -528
WIRE 1264 -528 1264 -832
WIRE 1264 -528 1232 -528
WIRE 1312 -528 1264 -528
WIRE 1408 -528 1312 -528
WIRE 1712 -528 1504 -528
WIRE 1952 -528 1712 -528
WIRE 2016 -528 1952 -528
WIRE 1312 -512 1312 -528
WIRE 2016 -512 2016 -528
WIRE 976 -496 976 -528
WIRE 160 -448 144 -448
WIRE 304 -448 240 -448
WIRE 880 -448 688 -448
WIRE 928 -416 928 -432
WIRE 976 -416 976 -432
WIRE 1312 -416 1312 -448
WIRE 2016 -416 2016 -432
WIRE 304 -368 96 -368
WIRE 1136 -368 1136 -528
WIRE 1136 -368 688 -368
WIRE 1712 -352 1712 -528
WIRE 272 -288 272 -528
WIRE 304 -288 272 -288
WIRE 1264 -288 1264 -528
WIRE 1264 -288 688 -288
WIRE 432 -224 432 -240
WIRE 560 -224 560 -240
WIRE 160 -192 144 -192
WIRE 272 -192 272 -288
WIRE 272 -192 240 -192
WIRE 304 -192 272 -192
WIRE 1264 -192 1264 -288
WIRE 1264 -192 384 -192
WIRE 96 -128 96 -368
WIRE 1088 -128 96 -128
WIRE 1136 -128 1088 -128
WIRE 1264 -128 1216 -128
WIRE 1952 -128 1952 -528
WIRE 1952 -128 1568 -128
WIRE 96 -112 96 -128
WIRE 1264 -112 1264 -128
WIRE 1952 -96 1952 -128
WIRE 1088 -32 1088 -128
WIRE 1264 -32 1264 -48
WIRE 1408 -32 1408 -528
WIRE 1488 -32 1488 -480
WIRE 1568 -32 1568 -128
WIRE 96 -16 96 -48
WIRE 1952 16 1952 -16
WIRE 1952 16 1664 16
WIRE 32 32 32 -688
WIRE 1040 32 32 32
WIRE 1952 64 1952 16
WIRE -32 80 -32 -880
WIRE 1040 80 -32 80
WIRE 1904 80 1664 80
WIRE -144 112 -144 -880
WIRE 640 112 -144 112
WIRE 784 112 640 112
WIRE 1040 112 784 112
WIRE 640 128 640 112
WIRE 784 128 784 112
WIRE 32 144 32 32
WIRE 1952 160 1664 160
WIRE 640 208 640 192
WIRE 1712 208 1712 -272
WIRE 1712 208 1664 208
WIRE 784 240 784 208
WIRE 784 240 640 240
WIRE 1040 240 784 240
WIRE 640 256 640 240
WIRE 784 256 784 240
WIRE 1712 304 1712 288
WIRE 1712 304 1664 304
WIRE 1712 320 1712 304
WIRE 640 352 640 320
WIRE 784 352 784 336
WIRE 1040 352 1008 352
WIRE 1040 400 640 400
WIRE 1712 400 1664 400
WIRE 1808 400 1712 400
WIRE 1952 400 1952 160
WIRE 1952 400 1888 400
WIRE 1040 448 784 448
WIRE 1952 480 1952 400
WIRE 640 496 640 400
WIRE 976 496 960 496
WIRE 1712 512 1664 512
WIRE 1840 512 1712 512
WIRE 880 544 864 544
WIRE 1040 544 944 544
WIRE 1840 544 1840 512
WIRE 784 576 784 448
WIRE 1952 592 1952 544
WIRE 1712 608 1712 512
WIRE 1120 640 1120 624
WIRE 1344 640 1344 624
WIRE 1408 640 1408 624
WIRE 1488 640 1488 624
WIRE 1840 656 1840 624
WIRE -144 672 -144 112
WIRE 1952 704 1952 672
WIRE 1120 736 1120 704
WIRE 1344 736 1344 720
WIRE 1408 736 1408 720
WIRE 32 768 32 224
WIRE 640 768 640 576
WIRE 640 768 32 768
WIRE 784 768 784 656
WIRE 784 768 640 768
WIRE 1568 768 1568 624
WIRE 1568 768 784 768
WIRE 1712 768 1712 688
WIRE 1712 768 1568 768
WIRE 1728 768 1712 768
WIRE 1808 768 1792 768
WIRE -144 800 -144 752
WIRE 1232 800 1232 624
WIRE 1232 800 -144 800
WIRE -144 832 -144 800
WIRE -144 928 -144 912
FLAG 928 -416 0
FLAG 560 -224 0
FLAG 1312 -416 0
FLAG 2016 -416 0
FLAG 2016 -528 OUT
FLAG 976 -416 0
FLAG 432 -224 0
FLAG 192 -608 0
FLAG 144 -448 0
FLAG 144 -192 0
FLAG 464 -784 0
FLAG 784 352 0
FLAG 640 208 0
FLAG 960 496 0
FLAG 864 544 0
FLAG 1952 704 0
FLAG 1808 768 0
FLAG 1840 656 0
FLAG 96 -16 0
FLAG -576 -768 0
FLAG -576 -880 IN
FLAG 32 -768 0
FLAG -144 928 0
FLAG 640 352 0
FLAG 1120 736 0
FLAG 1344 736 0
FLAG 1408 736 0
FLAG 1488 640 0
FLAG 1952 400 BAT
SYMBOL nmos 880 -688 R0
SYMATTR InstName Q1
SYMATTR Value BSC123N08NS3
SYMBOL nmos 880 -528 R0
WINDOW 0 -2 31 Right 2
WINDOW 3 17 104 Right 2
SYMATTR InstName Q2
SYMATTR Value BSC123N08NS3
SYMBOL schottky 640 -768 R270
WINDOW 0 32 32 VTop 2
WINDOW 3 0 32 VBottom 2
SYMATTR InstName D1
SYMATTR Value MBRS140
SYMATTR Description Diode
SYMATTR Type diode
SYMBOL cap 768 -688 R0
SYMATTR InstName C1
SYMATTR Value .1u
SYMBOL cap 1248 -112 R0
WINDOW 39 24 77 Left 2
SYMATTR InstName C2
SYMATTR Value 47n
SYMBOL schottky 960 -432 M180
WINDOW 0 24 64 Left 2
WINDOW 3 24 0 Left 2
SYMATTR InstName D2
SYMATTR Value MBRS1100
SYMATTR Description Diode
SYMATTR Type diode
SYMBOL ind 1008 -512 R270
WINDOW 0 32 56 VTop 2
WINDOW 3 5 56 VBottom 2
SYMATTR InstName L1
SYMATTR Value 10u
SYMATTR SpiceLine Rpar=2K
SYMBOL res 1136 -512 R270
WINDOW 0 32 56 VTop 2
WINDOW 3 0 56 VBottom 2
SYMATTR InstName R1
SYMATTR Value 3m
SYMBOL res 256 -464 R90
WINDOW 0 0 56 VBottom 2
WINDOW 3 32 56 VTop 2
SYMATTR InstName R2
SYMATTR Value 49.9K
SYMBOL cap 272 -624 R90
WINDOW 0 0 32 VBottom 2
WINDOW 3 32 32 VTop 2
SYMATTR InstName C3
SYMATTR Value .002u
SYMBOL cap 1296 -512 R0
SYMATTR InstName C4
SYMATTR Value 100u
SYMBOL diode 1104 -848 R90
WINDOW 0 0 32 VBottom 2
WINDOW 3 32 32 VTop 2
SYMATTR InstName D3
SYMATTR Value 1N4148
SYMBOL res 288 -176 R270
WINDOW 0 32 56 VTop 2
WINDOW 3 0 56 VBottom 2
SYMATTR InstName R3
SYMATTR Value 150K
SYMBOL res 144 -176 R270
WINDOW 0 32 56 VTop 2
WINDOW 3 0 56 VBottom 2
SYMATTR InstName R4
SYMATTR Value 16.2K
SYMBOL cap 544 -800 R90
WINDOW 0 0 32 VBottom 2
WINDOW 3 32 32 VTop 2
SYMATTR InstName C5
SYMATTR Value 1u
SYMBOL PowerProducts\\LT3845A 496 -496 R0
SYMATTR InstName U1
SYMBOL res 1120 -112 R270
WINDOW 0 32 56 VTop 2
WINDOW 3 0 56 VBottom 2
SYMATTR InstName R5
SYMATTR Value 14.7k
SYMBOL res 16 128 R0
SYMATTR InstName R6
SYMATTR Value 1Meg
SYMBOL res 768 112 R0
SYMATTR InstName R7
SYMATTR Value 1.1Meg
SYMBOL res 768 240 R0
SYMATTR InstName R8
SYMATTR Value 100K
SYMBOL cap 624 128 R0
SYMATTR InstName C6
SYMATTR Value 1u
SYMBOL cap 1040 480 R90
WINDOW 0 0 32 VBottom 2
WINDOW 3 32 32 VTop 2
SYMATTR InstName C7
SYMATTR Value 10n
SYMBOL cap 944 528 R90
WINDOW 0 0 32 VBottom 2
WINDOW 3 32 32 VTop 2
SYMATTR InstName C8
SYMATTR Value 10n
SYMBOL res 768 560 R0
SYMATTR InstName R9
SYMATTR Value 100K
SYMBOL res 624 480 R0
SYMATTR InstName R10
SYMATTR Value 100K
SYMBOL pmos 1408 -480 R270
WINDOW 0 59 52 VTop 2
WINDOW 3 26 90 VRight 2
SYMATTR InstName Q3
SYMATTR Value Si4427DY
SYMBOL pmos 1904 160 M180
SYMATTR InstName Q4
SYMATTR Value Si4427DY
SYMBOL res 1696 -368 R0
SYMATTR InstName R11
SYMATTR Value 1.15Meg
SYMBOL res 1696 192 R0
SYMATTR InstName R12
SYMATTR Value 127K
SYMBOL res 1696 304 R0
SYMATTR InstName R13
SYMATTR Value 133K
SYMBOL res 1904 384 R90
WINDOW 0 0 56 VBottom 2
WINDOW 3 32 56 VTop 2
SYMATTR InstName R14
SYMATTR Value 1.13Meg
SYMBOL voltage 1952 576 R0
SYMATTR Value 7.35
SYMATTR InstName V1
SYMBOL cap 1728 784 R270
WINDOW 0 32 32 VTop 2
WINDOW 3 0 32 VBottom 2
SYMATTR InstName C9
SYMATTR Value 1u
SYMBOL res 1696 592 R0
SYMATTR InstName R15
SYMATTR Value 10K
SYMBOL res 1824 528 R0
SYMATTR InstName R16
SYMATTR Value 10K
SYMBOL res 1392 624 R0
SYMATTR InstName R17
SYMATTR Value 22.1K
SYMBOL res 1360 624 M0
SYMATTR InstName R18
SYMATTR Value 24.9K
SYMBOL cap 1104 640 R0
SYMATTR InstName C10
SYMATTR Value .0047u
SYMBOL res 1936 -112 R0
SYMATTR InstName R19
SYMATTR Value 5m
SYMBOL cap 80 -112 R0
WINDOW 39 24 79 Left 2
SYMATTR SpiceLine Rser=20K Cpar=100p
SYMATTR InstName C11
SYMATTR Value 2200p
SYMBOL cap 1936 480 R0
WINDOW 39 24 77 Left 2
SYMATTR SpiceLine Rser=1m
SYMATTR InstName C12
SYMATTR Value 10m
SYMBOL voltage -576 -880 R0
WINDOW 3 25 101 Left 2
WINDOW 123 0 0 Left 2
WINDOW 39 0 0 Left 2
SYMATTR Value 36
SYMATTR InstName V2
SYMBOL res -144 -864 R270
WINDOW 0 32 56 VTop 2
WINDOW 3 0 56 VBottom 2
SYMATTR InstName R20
SYMATTR Value 5m
SYMBOL ind -320 -864 R270
WINDOW 0 32 56 VTop 2
WINDOW 3 5 56 VBottom 2
SYMATTR InstName L2
SYMATTR Value .01u
SYMBOL cap 16 -864 R0
WINDOW 39 24 77 Left 2
SYMATTR InstName C13
SYMATTR Value 100u
SYMBOL LTC4000-1 1088 272 R0
SYMATTR InstName U2
SYMBOL res -160 656 R0
SYMATTR InstName R21
SYMATTR Value 31.6K
SYMBOL res -160 816 R0
SYMATTR InstName R22
SYMATTR Value 10K
SYMBOL res -464 -864 R270
WINDOW 0 32 56 VTop 2
WINDOW 3 0 56 VBottom 2
SYMATTR InstName R23
SYMATTR Value 2
SYMBOL res 2000 -528 R0
SYMATTR InstName Rload
SYMATTR Value 10
SYMBOL zener 624 320 M180
WINDOW 0 24 64 Left 2
WINDOW 3 24 0 Left 2
SYMATTR InstName D4
SYMATTR Value 2V
SYMATTR Description Diode
SYMATTR Type diode
TEXT 1392 832 Left 2 !.tran 0 25m 10m startup
TEXT 1392 864 Left 2 !.model 2V D(Ron=100 Roff=1G vfwd=0.01 Vrev=1.9 epsilon=1 RevEpsilon=.2)
TEXT 976 -904 Bottom 2 ;LTC4000-1 - High Voltage High Current Controller for Battery Charging with Maximum Power Point Control\nLT3845A - High Voltage Synchronous Current Mode Step-Down Controller with Adjustable Operating Frequency\nCharger for Three LiFePO4 Cells with a Solar Panel Input\nInput: 20V to 60V     Output: 10.8V Float Voltage @ 10A Max Charge Current & 12V @ 15A System
TEXT 2016 464 Left 2 ;Battery
TEXT 176 840 Left 2 ;Note:\n  If the simulation model is not found please update with the "Sync Release" command from the "Tools" menu.\n  It remains the customer's responsibility to verify proper and reliable operation in the actual application.\n  Component substitution and printed circuit board layout may significantly affect circuit performance or reliability.\n  Contact your local sales representative for assistance. This circuit is distributed to customers only for use with LTC parts.\n  Copyright © 2014 Linear Technology Inc. All rights reserved.
RECTANGLE Normal 1792 736 2112 448 2
