Version 4
SHEET 1 9052 3716
WIRE 5328 -1536 5088 -1536
WIRE 5488 -1536 5408 -1536
WIRE 5616 -1536 5584 -1536
WIRE 5712 -1536 5616 -1536
WIRE 5968 -1536 5808 -1536
WIRE 6032 -1536 5968 -1536
WIRE 6128 -1536 6032 -1536
WIRE 6128 -1520 6128 -1536
WIRE 6032 -1504 6032 -1536
WIRE 5088 -1488 5088 -1536
WIRE 5792 -1440 5792 -1488
WIRE 5808 -1440 5792 -1440
WIRE 5888 -1440 5872 -1440
WIRE 6032 -1424 6032 -1440
WIRE 6128 -1424 6128 -1440
WIRE 5792 -1392 5792 -1440
WIRE 5088 -1376 5088 -1408
WIRE 5616 -1344 5616 -1536
WIRE 5648 -1344 5616 -1344
WIRE 5968 -1344 5968 -1536
WIRE 5968 -1344 5936 -1344
WIRE 5568 -1184 5568 -1488
WIRE 5648 -1184 5568 -1184
WIRE 5984 -1184 5936 -1184
WIRE 6128 -1184 6048 -1184
WIRE 6128 -1168 6128 -1184
WIRE 6128 -1056 6128 -1088
WIRE 5792 -1040 5792 -1056
FLAG 5792 -1040 0
FLAG 5088 -1376 0
FLAG 6128 -1056 0
FLAG 6032 -1424 0
FLAG 6128 -1424 0
FLAG 5088 -1536 IN
FLAG 6128 -1536 OUT
FLAG 5888 -1440 0
SYMBOL cap 6016 -1504 R0
SYMATTR InstName C1
SYMATTR Value 10µ
SYMBOL res 6112 -1536 R0
SYMATTR InstName R1
SYMATTR Value 10
SYMBOL ind 5312 -1520 R270
WINDOW 0 32 56 VTop 0
WINDOW 3 5 56 VBottom 0
SYMATTR InstName L1
SYMATTR Value 1µ
SYMATTR SpiceLine Rser=150m Rpar=2K
SYMBOL voltage 6128 -1184 R0
WINDOW 123 0 0 Left 0
WINDOW 39 0 0 Left 0
WINDOW 3 13 106 Left 0
SYMATTR Value 5
SYMATTR InstName V1
SYMBOL nmos 5712 -1488 R270
WINDOW 0 54 46 VTop 0
WINDOW 3 -22 68 VLeft 0
SYMATTR InstName Q1
SYMATTR Value Si4892DY
SYMBOL pmos 5488 -1488 R270
WINDOW 0 57 51 VTop 0
WINDOW 3 -13 74 VLeft 0
SYMATTR InstName Q2
SYMATTR Value FDS4953
SYMBOL voltage 5088 -1504 R0
WINDOW 123 36 93 Left 0
WINDOW 3 37 57 Left 0
WINDOW 39 29 125 Left 0
SYMATTR Value2 +10u 0 200m 0 +1u -20 250m -20
SYMATTR Value PWL(0u 0 100m 0 +1u 20 150m 20
SYMATTR SpiceLine +10u 0 400m 0 +1u 5 800m 5 +1u 20)
SYMATTR InstName V2
SYMBOL LTC4360-2 5792 -1216 R0
SYMATTR InstName U1
SYMBOL LED 6048 -1200 R90
WINDOW 0 0 32 VBottom 0
WINDOW 3 72 32 VTop 0
SYMATTR InstName D1
SYMATTR Value NSPW500BS
SYMBOL cap 5872 -1456 R90
WINDOW 3 32 32 VTop 0
WINDOW 0 0 32 VBottom 0
SYMATTR Value .0068µ
SYMATTR InstName C2
TEXT 6040 -1008 Left 0 !.tran 1000m startup
TEXT 5760 -1632 Bottom 0 ;LTC4360 - Overvoltage Protection Controller\n5V System Protected from ± 24V Power Supplies
TEXT 5144 -960 Left 0 ;Note:\n  If the simulation model is not found please update with the "Sync Release" command from the "Tools" menu.\n  It remains the customer's responsibility to verify proper and reliable operation in the actual application.\n  Component substitution and printed circuit board layout may significantly affect circuit performance or reliability.\n  Contact your local sales representative for assistance. This circuit is distributed to customers only for use with LTC parts.\n  Copyright © 2011 Linear Technology Inc. All rights reserved.
