Version 4
SHEET 1 6152 5600
WIRE 176 -624 -496 -624
WIRE 256 -624 176 -624
WIRE 368 -624 352 -624
WIRE 432 -624 368 -624
WIRE 1040 -624 528 -624
WIRE 1120 -624 1040 -624
WIRE 1248 -624 1120 -624
WIRE -496 -608 -496 -624
WIRE 1120 -608 1120 -624
WIRE 1248 -608 1248 -624
WIRE 336 -560 336 -576
WIRE 432 -560 336 -560
WIRE 448 -560 448 -576
WIRE 448 -560 432 -560
WIRE -496 -512 -496 -528
WIRE 1120 -512 1120 -544
WIRE 1248 -512 1248 -528
WIRE 112 -464 -496 -464
WIRE 464 -464 112 -464
WIRE 576 -464 560 -464
WIRE 640 -464 576 -464
WIRE 768 -464 736 -464
WIRE 1040 -464 1040 -624
WIRE 1040 -464 768 -464
WIRE -496 -448 -496 -464
WIRE 768 -432 768 -464
WIRE 544 -400 544 -416
WIRE 640 -400 544 -400
WIRE 656 -400 656 -416
WIRE 656 -400 640 -400
WIRE -496 -352 -496 -368
WIRE 640 -352 640 -400
WIRE 768 -352 768 -368
WIRE 768 -352 640 -352
WIRE 640 -336 640 -352
WIRE 768 -320 768 -352
WIRE 640 -240 640 -256
WIRE 768 -240 768 -256
WIRE 768 -240 640 -240
WIRE 48 -192 -496 -192
WIRE 672 -192 48 -192
WIRE 784 -192 768 -192
WIRE 848 -192 784 -192
WIRE 1040 -192 1040 -464
WIRE 1040 -192 944 -192
WIRE -496 -176 -496 -192
WIRE 752 -128 752 -144
WIRE 848 -128 752 -128
WIRE 864 -128 864 -144
WIRE 864 -128 848 -128
WIRE 368 -96 368 -624
WIRE 432 -96 432 -560
WIRE 576 -96 576 -464
WIRE 640 -96 640 -240
WIRE 784 -96 784 -192
WIRE 848 -96 848 -128
WIRE -496 -80 -496 -96
WIRE 176 -32 176 -624
WIRE 304 -32 176 -32
WIRE 176 -16 176 -32
WIRE 176 80 176 64
WIRE 304 80 176 80
WIRE 1040 80 1040 -192
WIRE 1040 80 896 80
WIRE 176 96 176 80
WIRE 176 192 176 176
WIRE 304 192 176 192
WIRE 928 192 896 192
WIRE 1040 192 1040 80
WIRE 1040 192 1008 192
WIRE 112 304 112 -464
WIRE 304 304 112 304
WIRE 928 304 896 304
WIRE 1040 304 1040 192
WIRE 1040 304 1008 304
WIRE 112 320 112 304
WIRE 112 416 112 400
WIRE 304 416 112 416
WIRE 928 416 896 416
WIRE 1040 416 1040 304
WIRE 1040 416 1008 416
WIRE 112 432 112 416
WIRE 112 528 112 512
WIRE 304 528 112 528
WIRE 928 528 896 528
WIRE 48 640 48 -192
WIRE 304 640 48 640
WIRE 928 640 896 640
WIRE 48 656 48 640
WIRE 48 752 48 736
WIRE 304 752 48 752
WIRE 928 752 896 752
WIRE 48 768 48 752
WIRE 48 864 48 848
WIRE 304 864 48 864
WIRE 928 864 896 864
WIRE 608 944 608 912
FLAG -496 -512 0
FLAG -496 -352 0
FLAG -496 -80 0
FLAG 176 272 0
FLAG 112 608 0
FLAG 48 944 0
FLAG 608 944 0
FLAG 928 752 0
FLAG 1248 -512 0
FLAG 1120 -512 0
SYMBOL res 160 176 R0
SYMATTR User1 1%
SYMATTR InstName R1
SYMATTR Value 60.4K
SYMATTR SpiceLine tol=1 pwr=0.1
SYMBOL res 160 80 R0
SYMATTR User1 1%
SYMATTR InstName R2
SYMATTR Value 39.2K
SYMATTR SpiceLine tol=1 pwr=0.1
SYMBOL res 160 -32 R0
SYMATTR User1 1%
SYMATTR InstName R3
SYMATTR Value 806K
SYMATTR SpiceLine tol=1 pwr=0.1
SYMBOL res 96 512 R0
SYMATTR InstName R4
SYMATTR Value 68.1K
SYMBOL res 96 416 R0
SYMATTR InstName R5
SYMATTR Value 31.6K
SYMBOL res 96 304 R0
SYMATTR InstName R6
SYMATTR Value 1.05Meg
SYMBOL res 1024 176 R90
WINDOW 0 0 56 VBottom 2
WINDOW 3 32 56 VTop 2
SYMATTR InstName R7
SYMATTR Value 1Meg
SYMATTR User1 5%
SYMBOL res 32 848 R0
SYMATTR InstName R8
SYMATTR Value 49.9K
SYMBOL res 32 752 R0
SYMATTR InstName R9
SYMATTR Value 16.9K
SYMBOL res 32 640 R0
SYMATTR InstName R10
SYMATTR Value 698K
SYMBOL cap 752 -432 R0
SYMATTR InstName C1
SYMATTR Value 15n
SYMBOL res 624 -352 R0
SYMATTR InstName R11
SYMATTR Value 1.43K
SYMBOL schottky 752 -256 M180
WINDOW 0 24 64 Left 2
WINDOW 3 24 0 Left 2
SYMATTR InstName D1
SYMATTR Value BAT54
SYMBOL res 1024 288 R90
WINDOW 0 0 56 VBottom 2
WINDOW 3 32 56 VTop 2
SYMATTR InstName R12
SYMATTR Value 1Meg
SYMATTR User1 5%
SYMBOL res 1024 400 R90
WINDOW 0 0 56 VBottom 2
WINDOW 3 32 56 VTop 2
SYMATTR InstName R13
SYMATTR Value 1Meg
SYMATTR User1 5%
SYMBOL pmos 256 -576 R270
WINDOW 0 51 49 VTop 2
WINDOW 3 -11 75 VLeft 2
SYMATTR InstName Q1
SYMATTR Value FDS4685
SYMBOL polcap 1104 -608 R0
WINDOW 3 24 56 Left 2
SYMATTR Value 100µ
SYMATTR InstName C2
SYMATTR Description Capacitor
SYMATTR Type cap
SYMATTR SpiceLine Rser=0.05
SYMBOL current 1248 -608 R0
WINDOW 39 23 82 Left 2
WINDOW 3 37 40 Left 2
SYMATTR SpiceLine load
SYMATTR Value 2
SYMATTR InstName I1
SYMBOL voltage -496 -464 R0
WINDOW 39 24 50 Left 2
WINDOW 123 0 0 Left 2
SYMATTR InstName V1
SYMATTR Value PULSE(0 14.8 3 1m 1m 24 48)
SYMBOL voltage -496 -192 R0
WINDOW 39 24 50 Left 2
WINDOW 123 0 0 Left 2
SYMATTR InstName V2
SYMATTR Value PULSE(0 12 3 1m 1m 40 80)
SYMBOL pmos 528 -576 M270
WINDOW 0 52 49 VTop 2
WINDOW 3 -11 72 VLeft 2
SYMATTR InstName Q2
SYMATTR Value FDS4685
SYMBOL pmos 464 -416 R270
WINDOW 0 56 47 VTop 2
WINDOW 3 -28 93 VLeft 2
SYMATTR InstName Q3
SYMATTR Value FDS4685
SYMBOL pmos 736 -416 M270
WINDOW 0 53 47 VTop 2
WINDOW 3 -31 88 VLeft 2
SYMATTR InstName Q4
SYMATTR Value FDS4685
SYMBOL pmos 672 -144 R270
WINDOW 0 56 39 VTop 2
WINDOW 3 -10 76 VLeft 2
SYMATTR InstName Q5
SYMATTR Value FDS4685
SYMBOL pmos 944 -144 M270
WINDOW 0 51 50 VTop 2
WINDOW 3 -11 70 VLeft 2
SYMATTR InstName Q6
SYMATTR Value FDS4685
SYMBOL voltage -496 -624 R0
WINDOW 39 24 44 Left 2
WINDOW 123 0 0 Left 2
SYMATTR InstName V3
SYMATTR Value PWL(0 0 15 18 24 7.2 24.1 -20 25 -20 25.1 20)
SYMBOL SpecialFunctions\\LTC4417 608 352 R0
SYMATTR InstName U1
TEXT 1000 904 Left 2 !.tran 30
TEXT 616 -664 Bottom 2 ;LTC4417 - Prioritized PowerPath Controller\nPriority Switching from 12V Main to 14.8V Battery Backup Supply\nInput: 12V Wall, 14.8 Li-Ion, 12V SLA     Output: 2A
TEXT -160 968 Left 2 ;Note:\n  If the simulation model is not found please update with the "Sync Release" command from the "Tools" menu.\n  It remains the customer's responsibility to verify proper and reliable operation in the actual application.\n  Component substitution and printed circuit board layout may significantly affect circuit performance or reliability.\n  Contact your local sales representative for assistance. This circuit is distributed to customers only for use with LTC parts.\n  Copyright © 2013 Linear Technology Inc. All rights reserved.
