Version 4
SHEET 1 3276 680
WIRE 592 -1120 128 -1120
WIRE 128 -1088 128 -1120
WIRE -176 -1024 -224 -1024
WIRE -64 -1024 -176 -1024
WIRE -32 -1024 -64 -1024
WIRE 352 -1024 272 -1024
WIRE 480 -1024 352 -1024
WIRE -64 -960 -64 -1024
WIRE -32 -960 -64 -960
WIRE -176 -928 -176 -1024
WIRE -32 -896 -64 -896
WIRE 304 -896 272 -896
WIRE -176 -832 -176 -848
WIRE -32 -832 -176 -832
WIRE 352 -832 352 -1024
WIRE -176 -816 -176 -832
WIRE 128 -768 128 -784
WIRE -64 -736 -64 -896
WIRE 352 -736 352 -752
WIRE 352 -736 -64 -736
WIRE -176 -720 -176 -736
WIRE 352 -720 352 -736
WIRE 0 -640 0 -672
WIRE 32 -640 32 -672
WIRE 352 -624 352 -640
WIRE -16 -576 -96 -576
WIRE 480 -576 480 -1024
WIRE 480 -576 160 -576
WIRE 128 -496 128 -512
WIRE 592 -496 592 -1120
WIRE 592 -496 128 -496
WIRE 592 -480 592 -496
WIRE 128 -464 128 -496
WIRE 592 -400 592 -416
WIRE -368 -352 -1104 -352
WIRE -224 -352 -224 -1024
WIRE -224 -352 -368 -352
WIRE -48 -352 -224 -352
WIRE 128 -352 128 -400
WIRE 480 -352 480 -576
WIRE 480 -352 304 -352
WIRE 592 -352 480 -352
WIRE 688 -352 592 -352
WIRE 800 -352 688 -352
WIRE 960 -352 800 -352
WIRE -1104 -336 -1104 -352
WIRE -368 -336 -368 -352
WIRE 480 -336 480 -352
WIRE 592 -336 592 -352
WIRE 688 -336 688 -352
WIRE 800 -336 800 -352
WIRE 960 -336 960 -352
WIRE 1120 -320 1008 -320
WIRE -48 -304 -48 -352
WIRE -16 -304 -48 -304
WIRE 304 -304 304 -352
WIRE 304 -304 272 -304
WIRE 1120 -304 1120 -320
WIRE -1104 -240 -1104 -256
WIRE -368 -240 -368 -256
WIRE -368 -240 -448 -240
WIRE -48 -240 -368 -240
WIRE -16 -240 -48 -240
WIRE 480 -240 480 -256
WIRE 480 -240 272 -240
WIRE 688 -240 688 -272
WIRE 800 -240 800 -256
WIRE 960 -240 960 -256
WIRE -448 -224 -448 -240
WIRE -368 -224 -368 -240
WIRE -224 -224 -224 -352
WIRE 480 -224 480 -240
WIRE 1120 -208 1120 -224
WIRE -16 -176 -128 -176
WIRE 432 -176 272 -176
WIRE -448 -128 -448 -160
WIRE -368 -128 -368 -144
WIRE -224 -128 -224 -144
WIRE -224 -128 -304 -128
WIRE -128 -128 -128 -176
WIRE -128 -128 -224 -128
WIRE 480 -128 480 -144
WIRE -304 -112 -304 -128
WIRE -224 -112 -224 -128
WIRE -48 -112 -48 -240
WIRE -16 -112 -48 -112
WIRE 288 -112 272 -112
WIRE 384 -112 368 -112
WIRE 432 -96 432 -176
WIRE 592 -96 592 -256
WIRE 592 -96 432 -96
WIRE -96 -48 -96 -576
WIRE -48 -48 -96 -48
WIRE -16 -48 -48 -48
WIRE 384 -48 272 -48
WIRE -304 -16 -304 -48
WIRE -224 -16 -224 -32
WIRE -48 16 -48 -48
WIRE -16 16 -48 16
WIRE 384 16 384 -48
WIRE 384 16 272 16
WIRE 384 32 384 16
WIRE -16 80 -32 80
WIRE 288 80 272 80
WIRE 384 112 384 96
WIRE 304 208 272 208
FLAG 480 -128 0
FLAG 288 80 0
FLAG 384 -112 0
FLAG -1104 -240 0
FLAG 688 -240 0
FLAG 800 -352 OUT
FLAG -1104 -352 IN
FLAG 304 208 TjLTC4234FET
FLAG 384 112 0
FLAG 1008 -272 0
FLAG 1120 -208 0
FLAG 800 -240 0
FLAG -176 -720 0
FLAG 128 -768 0
FLAG 352 -624 0
FLAG 0 -672 Tc
FLAG 32 -672 Tj
FLAG -368 -128 0
FLAG -224 -16 0
FLAG 592 -400 0
FLAG 960 -240 0
FLAG -448 -128 0
FLAG -304 -16 0
SYMBOL voltage -1104 -352 R0
WINDOW 123 0 0 Left 2
WINDOW 39 0 0 Left 2
SYMATTR InstName V1
SYMATTR Value PWL(0 0 +1m 13 1 13 +1u 13 3 13 +1u 0 5 0 10 15)
SYMBOL cap 672 -336 R0
SYMATTR InstName C1
SYMATTR Value 1000µ
SYMBOL res 272 -96 R270
WINDOW 0 32 56 VTop 2
WINDOW 3 0 56 VBottom 2
SYMATTR InstName R1
SYMATTR Value 20K
SYMBOL res 464 -240 R0
SYMATTR InstName R2
SYMATTR Value 20K
SYMBOL res 464 -352 R0
SYMATTR InstName R3
SYMATTR Value 150K
SYMBOL res 576 -352 R0
SYMATTR InstName R4
SYMATTR Value 20K
SYMBOL cap 368 32 R0
SYMATTR Value .1µ
SYMATTR InstName C2
SYMBOL LTC4234 128 -144 R0
SYMATTR InstName U1
SYMBOL sw 960 -240 R180
WINDOW 0 -23 102 Right 2
WINDOW 3 -26 2 Right 2
SYMATTR InstName S1
SYMATTR Value SHORT
SYMBOL voltage 1120 -320 R0
WINDOW 123 0 0 Left 2
WINDOW 39 0 0 Left 2
SYMATTR InstName V2
SYMATTR Value PWL (0 0 2 0 +1u 1 4 1 +1u 0)
SYMBOL res 784 -352 R0
SYMATTR InstName R5
SYMATTR Value {Rload}
SYMBOL nmos 48 -528 R270
WINDOW 0 134 20 VRight 2
WINDOW 3 103 20 VRight 2
SYMATTR InstName M1
SYMATTR Value BSB012NE2LX
SYMBOL diode 112 -464 R0
SYMATTR InstName D1
SYMATTR Value 1N4148
SYMBOL LTC4365-1 128 -864 R0
SYMATTR InstName U2
SYMBOL res -192 -832 R0
SYMATTR InstName R6
SYMATTR Value 10K
SYMBOL SOAtherm-NMOS 96 -576 R270
WINDOW 0 -46 -77 VCenter 2
WINDOW 38 27 -28 VRight 2
SYMATTR InstName U3
SYMATTR Value2 Tambient=85 RthetaJA=50 Cheatsink=0.00E+00 Imult=1.00E+01 Iexponent=3.00E-01 R6=3.18E-02 C6=1.77E-04 R5=1.01E-01  C5=2.77E-04 R4=2.74E-01  C4=1.60E-03 R3=8.49E-01  C3=8.83E-03 R2=7.34E-02  C2=4.12E-03 R1=1.05E-03  C1=1.82E-03
SYMBOL res -192 -944 R0
SYMATTR InstName R7
SYMATTR Value 261K
SYMBOL res 336 -736 R0
SYMATTR InstName R8
SYMATTR Value 10K
SYMBOL res 336 -848 R0
SYMATTR InstName R9
SYMATTR Value 200K
SYMBOL res -384 -352 R0
SYMATTR InstName R10
SYMATTR Value 158K
SYMBOL res -384 -240 R0
SYMATTR InstName R11
SYMATTR Value 20K
SYMBOL res -240 -240 R0
SYMATTR InstName R12
SYMATTR Value 191K
SYMBOL res -240 -128 R0
SYMATTR InstName R13
SYMATTR Value 20K
SYMBOL cap 576 -480 R0
SYMATTR InstName C3
SYMATTR Value 1n
SYMBOL cap -464 -224 R0
SYMATTR InstName C4
SYMATTR Value 1n
SYMBOL cap -320 -112 R0
SYMATTR InstName C5
SYMATTR Value 1n
TEXT 464 88 Left 2 !.model SHORT SW(Ron={Rshort} Roff=1000K Vt=.5 Vh=-.4)
TEXT 464 144 Left 2 !.tran 20 startup
TEXT 464 208 Left 2 !.param Rload=1 Rshort=0.1
TEXT 104 -448 Right 2 ;Use BAR18 low\nleakage diode
TEXT 64 -696 Left 2 ;Use BSC009NE2LS
TEXT 184 -1136 Bottom 2 ;LTC4234 - 20A Guaranteed SOA Hot Swap Controller\nLTC4365 - Overvoltage, Undervoltage and Reverse Supply Protection Controller\nHigh Current, Low On-Resistance, 12V Hot Swap with Guaranteed SOA
TEXT -432 304 Left 2 ;Note:\n  If the simulation model is not found please update with the "Sync Release" command from the "Tools" menu.\n  It remains the customer's responsibility to verify proper and reliable operation in the actual application.\n  Component substitution and printed circuit board layout may significantly affect circuit performance or reliability\n  Contact your local sales representative for assistance. This circuit is distributed to customers only for use with LTC parts\n  Copyright © 2015 Linear Technology Inc. All rights reserved.
