Version 4
SHEET 1 880 900
WIRE -656 192 -688 192
WIRE -400 192 -432 192
WIRE -656 272 -672 272
WIRE -352 272 -432 272
WIRE -240 272 -352 272
WIRE -352 288 -352 272
WIRE -240 288 -240 272
WIRE -880 352 -992 352
WIRE -736 352 -800 352
WIRE -656 352 -736 352
WIRE -416 352 -432 352
WIRE -992 368 -992 352
WIRE -736 368 -736 352
WIRE -352 384 -352 352
WIRE -240 384 -240 368
WIRE -992 464 -992 448
WIRE -736 464 -736 448
FLAG -672 272 0
FLAG -736 464 0
FLAG -352 384 0
FLAG -240 384 0
FLAG -992 352 CTRL
FLAG -992 464 0
FLAG -416 352 0
FLAG -400 192 OUT
SYMBOL voltage -240 272 R0
WINDOW 123 24 138 Left 2
WINDOW 39 24 117 Left 2
SYMATTR InstName V1
SYMATTR Value 5V
SYMBOL res -752 352 R0
SYMATTR InstName R1
SYMATTR Value 100K
SYMBOL cap -368 288 R0
SYMATTR InstName C1
SYMATTR Value 0.1µ
SYMBOL res -784 336 R90
WINDOW 0 0 56 VBottom 2
WINDOW 3 32 56 VTop 2
SYMATTR InstName R2
SYMATTR Value 100K
SYMBOL voltage -992 352 R0
WINDOW 123 24 138 Left 2
WINDOW 39 24 117 Left 2
SYMATTR Value SINE(.75 .75 10)
SYMATTR InstName V2
SYMBOL SpecialFunctions\\LTC6991 -544 272 R0
SYMATTR InstName U1
TEXT -368 480 Left 2 !.tran 100m startup
TEXT -528 144 Bottom 2 ;LTC6991 - TimerBlox: Resettable, Low Frequency Oscillator\nLow Frequency Voltage Controlled Oscillator\nControl: 0V to 1.5V     Output: 250Hz to 1kHz
TEXT -1176 520 Left 2 ;Note:\n  If the simulation model is not found please update with the "Sync Release" command from the "Tools" menu.\n  It remains the customer's responsibility to verify proper and reliable operation in the actual application.\n  Component substitution and printed circuit board layout may significantly affect circuit performance or reliability.\n  Contact your local sales representative for assistance. This circuit is distributed to customers only for use with LTC parts.\n  Copyright © 2013 Linear Technology Inc. All rights reserved.
