Version 4
SHEET 1 1232 1232
WIRE 240 -64 208 -64
WIRE 336 -64 240 -64
WIRE 448 -64 336 -64
WIRE 528 -64 448 -64
WIRE 240 -48 240 -64
WIRE 336 -48 336 -64
WIRE 448 -48 448 -64
WIRE 240 48 240 16
WIRE 336 48 336 16
WIRE 448 48 448 32
WIRE 208 96 208 -64
WIRE 0 128 -128 128
WIRE 400 128 352 128
WIRE -128 144 -128 128
WIRE 64 176 64 128
WIRE 96 176 64 176
WIRE -128 240 -128 224
WIRE 16 240 0 240
WIRE 96 240 80 240
WIRE 0 272 0 240
WIRE 400 288 352 288
WIRE 160 352 160 336
WIRE 208 352 208 336
WIRE 256 400 256 336
WIRE 480 400 256 400
WIRE 528 432 528 -64
WIRE 528 432 208 432
WIRE 208 464 208 432
WIRE -80 496 -224 496
WIRE -16 496 -80 496
WIRE 64 496 48 496
WIRE 400 496 352 496
WIRE -224 512 -224 496
WIRE -80 512 -80 496
WIRE 64 544 64 496
WIRE 96 544 64 544
WIRE -224 608 -224 592
WIRE -80 608 -80 592
WIRE 16 608 -32 608
WIRE 96 608 80 608
WIRE -32 624 -32 608
WIRE 400 656 352 656
WIRE -32 720 -32 704
WIRE 160 720 160 704
WIRE 208 720 208 704
WIRE 256 736 256 704
WIRE 480 736 480 400
WIRE 480 736 256 736
WIRE 480 752 480 736
WIRE 480 848 480 832
FLAG 208 352 0
FLAG 160 352 0
FLAG 448 48 0
FLAG 336 48 0
FLAG 240 48 0
FLAG 480 848 0
FLAG 208 720 0
FLAG 160 720 0
FLAG -128 240 0
FLAG 0 272 0
FLAG -32 720 0
FLAG -224 608 0
FLAG -80 608 0
SYMBOL Opamps\\LTC6400-20 224 208 R0
SYMATTR InstName U1
SYMBOL voltage 448 -64 R0
SYMATTR InstName V+
SYMATTR Value 3.0
SYMBOL cap 224 -48 R0
SYMATTR InstName CB1
SYMATTR Value 1000p
SYMBOL cap 320 -48 R0
SYMATTR InstName CB2
SYMATTR Value 0.1µ
SYMBOL voltage 480 736 R0
SYMATTR InstName VOCM
SYMATTR Value 1.25
SYMBOL Opamps\\LTC6400-20 224 576 R0
SYMATTR InstName U3
SYMBOL voltage -224 496 R0
WINDOW 123 37 58 Left 2
WINDOW 39 19 93 Left 2
WINDOW 0 19 12 Left 2
SYMATTR Value2 AC 1 0
SYMATTR SpiceLine Rser=50
SYMATTR InstName VS2
SYMATTR Value ""
SYMBOL res -96 496 R0
SYMATTR InstName R1
SYMATTR Value 66.5
SYMBOL cap 80 224 R90
WINDOW 0 0 32 VBottom 2
WINDOW 3 32 32 VTop 2
SYMATTR InstName C1
SYMATTR Value 1µ
SYMBOL cap 64 112 R90
WINDOW 0 0 32 VBottom 2
WINDOW 3 32 32 VTop 2
SYMATTR InstName C2
SYMATTR Value 1µ
SYMBOL res -48 608 R0
SYMATTR InstName R2
SYMATTR Value 29.4
SYMBOL cap 48 480 R90
WINDOW 0 0 32 VBottom 2
WINDOW 3 32 32 VTop 2
SYMATTR InstName C3
SYMATTR Value 1µ
SYMBOL cap 80 592 R90
WINDOW 0 0 32 VBottom 2
WINDOW 3 32 32 VTop 2
SYMATTR InstName C4
SYMATTR Value 1µ
SYMBOL voltage -128 128 R0
WINDOW 123 37 58 Left 2
WINDOW 39 19 93 Left 2
WINDOW 0 19 12 Left 2
SYMATTR Value2 AC 1 0
SYMATTR SpiceLine Rser=50
SYMATTR InstName VS1
SYMATTR Value ""
TEXT 632 760 Left 2 !.ac dec 100 100K 1G
TEXT -256 456 Left 2 ;Shunt Resistor Match
TEXT -248 96 Left 2 ;No Impedance Match
TEXT -56 -16 Center 2 ;SE Input Impedance is \nRinp=Rinm=Ri/(1-.5*(Rf/(Ri+Rf)))
TEXT -72 688 Right 2 ;R2 balances input \nimpedance at the inputs
TEXT -456 856 Left 2 ;Note:\n  If the simulation model is not found please update with the "Sync Release" command from the "Tools" menu.\n  It remains the customer's responsibility to verify proper and reliable operation in the actual application.\n  Component substitution and printed circuit board layout may significantly affect circuit performance or reliability.\n  Contact your local sales representative for assistance. This circuit is distributed to customers only for use with LTC parts.\n  Copyright © 2012 Linear Technology Inc. All rights reserved.
TEXT 120 -80 Bottom 2 ;LT6400-20 - 1.8 GHz Low Noise, Low Distortion Differential ADC Driver for 300 MHz IF \nSingle-Ended Impedance Matching for Fully Differential Amplifiers\nTwo example circuits that demonstrate single-ended resistance matching\nMore information on impedance matching is available in \nAN123, the LTC6400-20 datasheet, and the LTC6403 datasheet
