Version 4
SHEET 1 1248 780
WIRE 464 -192 384 -192
WIRE 592 -192 528 -192
WIRE 272 -96 64 -96
WIRE 384 -96 384 -192
WIRE 384 -96 352 -96
WIRE 448 -96 384 -96
WIRE 592 -96 592 -192
WIRE 592 -96 528 -96
WIRE 160 -16 128 -16
WIRE 272 -16 224 -16
WIRE -288 80 -288 64
WIRE -160 80 -160 64
WIRE -32 80 -48 80
WIRE 64 80 64 -96
WIRE 64 80 48 80
WIRE 128 80 128 -16
WIRE 128 80 64 80
WIRE 160 80 128 80
WIRE 272 80 272 -16
WIRE 272 80 240 80
WIRE 128 160 128 144
WIRE -288 192 -288 160
WIRE -160 192 -160 160
WIRE 448 192 448 176
WIRE 64 208 64 80
WIRE 96 208 64 208
WIRE 272 240 272 80
WIRE 272 240 240 240
WIRE 288 240 272 240
WIRE 384 240 384 -96
WIRE 384 240 368 240
WIRE 416 240 384 240
WIRE 0 272 -288 272
WIRE 96 272 0 272
WIRE 592 272 592 -96
WIRE 592 272 560 272
WIRE 624 272 592 272
WIRE -288 288 -288 272
WIRE 416 304 384 304
WIRE 128 336 128 320
WIRE 448 368 448 352
WIRE -288 400 -288 368
WIRE 0 400 -288 400
WIRE 384 400 384 304
WIRE 384 400 0 400
WIRE -288 416 -288 400
WIRE -288 512 -288 496
FLAG -160 192 0
FLAG 128 144 +V
FLAG -160 64 +V
FLAG 128 336 -V
FLAG -288 192 0
FLAG -288 64 -V
FLAG -48 80 0
FLAG -288 512 0
FLAG 448 176 +V
FLAG 448 368 -V
FLAG 0 272 IN-
FLAG 0 400 IN+
FLAG 624 272 OUT
SYMBOL voltage -160 64 R0
WINDOW 123 0 0 Left 2
WINDOW 39 0 0 Left 2
SYMATTR InstName V1
SYMATTR Value 5
SYMBOL voltage -288 64 R0
WINDOW 123 0 0 Left 2
WINDOW 39 0 0 Left 2
SYMATTR InstName V2
SYMATTR Value -5
SYMBOL res 256 64 R90
WINDOW 0 0 56 VBottom 2
WINDOW 3 32 56 VTop 2
SYMATTR InstName R1
SYMATTR Value 100K
SYMBOL res 64 64 R90
WINDOW 0 0 56 VBottom 2
WINDOW 3 32 56 VTop 2
SYMATTR InstName R2
SYMATTR Value 976K
SYMBOL voltage -288 272 R0
WINDOW 123 0 0 Left 2
WINDOW 39 0 0 Left 2
SYMATTR InstName V3
SYMATTR Value SINE(0 1m 100)
SYMBOL res 368 -112 R90
WINDOW 0 0 56 VBottom 2
WINDOW 3 32 56 VTop 2
SYMATTR InstName R3
SYMATTR Value 1.96K
SYMBOL res 384 224 R90
WINDOW 0 0 56 VBottom 2
WINDOW 3 32 56 VTop 2
SYMATTR InstName R4
SYMATTR Value 100K
SYMBOL res 544 -112 R90
WINDOW 0 0 56 VBottom 2
WINDOW 3 32 56 VTop 2
SYMATTR InstName R5
SYMATTR Value 1Meg
SYMBOL voltage -288 400 R0
SYMATTR InstName V4
SYMATTR Value SINE(0 1 10)
SYMBOL LTC6081 128 240 R0
SYMATTR InstName U3
SYMBOL LTC6081 448 272 R0
SYMATTR InstName U4
SYMBOL cap 224 -32 R90
WINDOW 0 0 32 VBottom 2
WINDOW 3 32 32 VTop 2
SYMATTR InstName C1
SYMATTR Value 15p
SYMBOL cap 528 -208 R90
WINDOW 0 0 32 VBottom 2
WINDOW 3 32 32 VTop 2
SYMATTR InstName C2
SYMATTR Value 15p
TEXT 600 416 Left 2 !.tran 50m
TEXT 128 -232 Bottom 2 ;LTC6081 - Precision Dual CMOS Rail-to-Rail Input/Output Amplifiers\nTwo Op Amp Instrumentation Amplifier
TEXT -528 528 Left 2 ;Note:\n  If the simulation model is not found please update with the "Sync Release" command from the "Tools" menu.\n  It remains the customer's responsibility to verify proper and reliable operation in the actual application.\n  Component substitution and printed circuit board layout may significantly affect circuit performance or reliability.\n  Contact your local sales representative for assistance. This circuit is distributed to customers only for use with LTC parts.\n  Copyright © 2014 Linear Technology Inc. All rights reserved.
