Version 4
SHEET 1 2184 680
WIRE 96 96 -416 96
WIRE 720 96 320 96
WIRE 1344 96 944 96
WIRE -416 112 -416 96
WIRE 1344 112 1344 96
WIRE 96 176 64 176
WIRE 432 176 320 176
WIRE 528 176 432 176
WIRE 720 176 704 176
WIRE 1024 176 944 176
WIRE 1136 176 1024 176
WIRE 1248 176 1136 176
WIRE 432 192 432 176
WIRE 528 192 528 176
WIRE 1136 192 1136 176
WIRE 1248 192 1248 176
WIRE -416 208 -416 192
WIRE 1344 208 1344 192
WIRE 1024 224 1024 176
WIRE 0 256 -16 256
WIRE 96 256 80 256
WIRE 352 256 320 256
WIRE 624 256 608 256
WIRE 720 256 704 256
WIRE 976 256 944 256
WIRE 432 288 432 256
WIRE 528 288 528 272
WIRE 1136 288 1136 256
WIRE 1248 288 1248 272
WIRE 352 336 352 256
WIRE 976 336 976 256
WIRE 976 336 352 336
WIRE 1024 336 1024 304
WIRE 1024 336 976 336
WIRE 1024 352 1024 336
WIRE 1024 448 1024 432
FLAG -416 208 0
FLAG 528 288 0
FLAG -16 256 0
FLAG 64 176 0
FLAG 1248 288 0
FLAG 1344 96 OUT
FLAG 608 256 0
FLAG 1024 448 0
FLAG 1344 208 0
FLAG 704 176 0
FLAG 432 288 0
FLAG 1136 288 0
FLAG -416 96 IN
SYMBOL res 96 240 R90
WINDOW 0 0 56 VBottom 0
WINDOW 3 32 56 VTop 0
SYMATTR InstName R1
SYMATTR Value 604K
SYMBOL voltage 528 176 R0
WINDOW 123 0 0 Left 0
WINDOW 39 0 0 Left 0
SYMATTR InstName V1
SYMATTR Value 5
SYMBOL voltage -416 96 R0
WINDOW 123 24 146 Left 0
WINDOW 39 24 125 Left 0
SYMATTR Value PULSE(0 3.3 10m 1n 1n 80m 100m 2)
SYMATTR InstName V2
SYMBOL SpecialFunctions\\LTC6994-1 208 176 R0
SYMATTR InstName U1
SYMBOL res 720 240 R90
WINDOW 0 0 56 VBottom 0
WINDOW 3 32 56 VTop 0
SYMATTR InstName R5
SYMATTR Value 121K
SYMBOL res 1008 208 R0
SYMATTR InstName R6
SYMATTR Value 1Meg
SYMBOL res 1008 336 R0
SYMATTR InstName R7
SYMATTR Value 392K
SYMBOL res 1328 96 R0
SYMATTR InstName R8
SYMATTR Value 100K
SYMBOL voltage 1248 176 R0
WINDOW 123 0 0 Left 0
WINDOW 39 0 0 Left 0
SYMATTR InstName V3
SYMATTR Value 5
SYMBOL SpecialFunctions\\LTC6993-1 832 176 R0
SYMATTR InstName U2
SYMBOL cap 416 192 R0
SYMATTR InstName C1
SYMATTR Value 0.1µ
SYMBOL cap 1120 192 R0
SYMATTR InstName C2
SYMATTR Value 0.1µ
TEXT 1160 352 Left 0 !.tran 200m startup
TEXT 200 296 Top 0 ;Rise Time Delay = 50ms
TEXT 824 296 Top 0 ;One Shot Time = 10ms
TEXT 536 48 Bottom 0 ;LTC6994 - TimerBlox: Delay Block/ Debouncer\nLTC6993 - TimerBlox:Monostable Pulse Generator (One Shot)\nDelayed One-Shot (50ms Delay with a 10ms One Shot)
TEXT -104 464 Left 0 ;Note:\n  If the simulation model is not found please update with the "Sync Release" command from the "Tools" menu.\n  It remains the customer's responsibility to verify proper and reliable operation in the actual application.\n  Component substitution and printed circuit board layout may significantly affect circuit performance or reliability.\n  Contact your local sales representative for assistance. This circuit is distributed to customers only for use with LTC parts.\n  Copyright © 2010 Linear Technology Inc. All rights reserved.
