Version 4
SHEET 1 3112 1592
WIRE -336 -896 -816 -896
WIRE 96 -896 -336 -896
WIRE 768 -896 320 -896
WIRE -816 -880 -816 -896
WIRE 768 -880 768 -896
WIRE 96 -816 80 -816
WIRE 512 -816 320 -816
WIRE 560 -816 512 -816
WIRE 672 -816 560 -816
WIRE 560 -800 560 -816
WIRE 672 -800 672 -816
WIRE -816 -784 -816 -800
WIRE 768 -784 768 -800
WIRE 96 -736 32 -736
WIRE 368 -736 320 -736
WIRE 416 -736 368 -736
WIRE 512 -736 512 -816
WIRE 512 -736 496 -736
WIRE 32 -720 32 -736
WIRE 368 -720 368 -736
WIRE 560 -704 560 -736
WIRE 672 -704 672 -720
WIRE 32 -624 32 -640
WIRE 368 -624 368 -640
WIRE -336 -464 -336 -896
WIRE 96 -464 -336 -464
WIRE 768 -464 320 -464
WIRE 768 -448 768 -464
WIRE 96 -384 80 -384
WIRE 512 -384 320 -384
WIRE 560 -384 512 -384
WIRE 672 -384 560 -384
WIRE 560 -368 560 -384
WIRE 672 -368 672 -384
WIRE 768 -352 768 -368
WIRE 96 -304 32 -304
WIRE 368 -304 320 -304
WIRE 416 -304 368 -304
WIRE 512 -304 512 -384
WIRE 512 -304 496 -304
WIRE 32 -288 32 -304
WIRE 368 -288 368 -304
WIRE 560 -272 560 -304
WIRE 672 -272 672 -288
WIRE 32 -192 32 -208
WIRE 368 -192 368 -208
FLAG -816 -784 0
FLAG 80 -816 0
FLAG 32 -624 0
FLAG 768 -784 0
FLAG 768 -896 OUT1
FLAG 560 -272 0
FLAG 368 -192 0
FLAG 80 -384 0
FLAG 32 -192 0
FLAG 672 -272 0
FLAG 768 -352 0
FLAG 768 -464 OUT2
FLAG 560 -704 0
FLAG 368 -624 0
FLAG 672 -704 0
FLAG -816 -896 IN
SYMBOL voltage -816 -896 R0
WINDOW 123 24 124 Left 2
WINDOW 39 24 152 Left 2
WINDOW 40 24 180 Left 2
SYMATTR Value2 100m 0 +.1m 3.3 210m 3.3 +.1m 0
SYMATTR SpiceLine 400m 0 +.1m 3.3 510m 3.3 +.1m 0
SYMATTR SpiceLine2 600m 0 +.1m 3.3)
SYMATTR Value PWL(30m 0 +.1m 3.3 90m 3.3 +.1m 0
SYMATTR InstName V1
SYMBOL res 16 -736 R0
SYMATTR InstName R1
SYMATTR Value 154K
SYMBOL res 752 -896 R0
SYMATTR InstName R2
SYMATTR Value 100K
SYMBOL res 512 -320 R90
WINDOW 0 0 56 VBottom 2
WINDOW 3 32 56 VTop 2
SYMATTR InstName R3
SYMATTR Value 1Meg
SYMBOL res 352 -304 R0
SYMATTR InstName R4
SYMATTR Value 523K
SYMBOL res 16 -304 R0
SYMATTR InstName R5
SYMATTR Value 154K
SYMBOL cap 544 -368 R0
SYMATTR InstName C1
SYMATTR Value 0.1µ
SYMBOL voltage 672 -384 R0
WINDOW 123 0 0 Left 2
WINDOW 39 0 0 Left 2
SYMATTR InstName V2
SYMATTR Value 3.3
SYMBOL res 752 -464 R0
SYMATTR InstName R6
SYMATTR Value 100K
SYMBOL LTC6994-2 208 -384 R0
SYMATTR InstName U1
SYMBOL LTC6994-1 208 -816 R0
SYMATTR InstName U2
SYMBOL res 512 -752 R90
WINDOW 0 0 56 VBottom 2
WINDOW 3 32 56 VTop 2
SYMATTR InstName R7
SYMATTR Value 1Meg
SYMBOL res 352 -736 R0
SYMATTR InstName R8
SYMATTR Value 523K
SYMBOL cap 544 -800 R0
SYMATTR InstName C2
SYMATTR Value 0.1µ
SYMBOL voltage 672 -816 R0
WINDOW 123 0 0 Left 2
WINDOW 39 0 0 Left 2
SYMATTR InstName V3
SYMATTR Value 3.3
TEXT 592 -208 Left 2 !.tran 1 startup
TEXT -480 -184 Left 2 ;Note:\n  If the simulation model is not found please update with the "Sync Release" command from the "Tools" menu.\n  It remains the customer's responsibility to verify proper and reliable operation in the actual application.\n  Component substitution and printed circuit board layout may significantly affect circuit performance or reliability.\n  Contact your local sales representative for assistance. This circuit is distributed to customers only for use with LTC parts.\n  Copyright © 2014 Linear Technology Inc. All rights reserved.
TEXT 192 -944 Bottom 2 ;LTC6994 - Timerblox: Delay Block/ Debouncer\nNoise Discriminator\n \nInput Must Be ON >100ms To Be Qualified, Output Goes Low Instantly When Input Goes OFF
TEXT 200 -512 Bottom 2 ;Input Must Be ON >100ms To Be Qualified, Output Goes Low When the Input is OFF for >100ms
