Version 4
SHEET 1 1448 812
WIRE 352 -64 144 -64
WIRE 496 -64 432 -64
WIRE 272 -48 64 -48
WIRE 64 -32 64 -48
WIRE 272 0 272 -48
WIRE 496 48 496 -64
WIRE 496 48 464 48
WIRE 528 48 496 48
WIRE 64 64 64 48
WIRE -224 96 -368 96
WIRE -112 96 -224 96
WIRE 144 96 144 -64
WIRE 144 96 -32 96
WIRE 160 96 144 96
WIRE -368 112 -368 96
WIRE -224 112 -224 96
WIRE 160 144 64 144
WIRE -80 192 -144 192
WIRE 144 192 0 192
WIRE 160 192 144 192
WIRE -368 208 -368 192
WIRE -224 208 -224 192
WIRE -144 208 -144 192
WIRE 64 224 64 144
WIRE 496 240 464 240
WIRE 528 240 496 240
WIRE -144 304 -144 288
WIRE 272 304 272 288
WIRE 64 320 64 304
WIRE 144 352 144 192
WIRE 352 352 144 352
WIRE 496 352 496 240
WIRE 496 352 432 352
FLAG 64 64 0
FLAG 64 320 0
FLAG 528 240 OUT+
FLAG 528 48 OUT-
FLAG -368 208 0
FLAG -224 208 0
FLAG -144 304 0
FLAG 272 304 0
SYMBOL voltage 64 -48 R0
SYMATTR InstName V+
SYMATTR Value 2.7
SYMBOL res 448 -80 R90
WINDOW 0 0 56 VBottom 2
WINDOW 3 32 56 VTop 2
SYMATTR InstName RF1
SYMATTR Value 100
SYMBOL res 448 336 R90
WINDOW 0 0 56 VBottom 2
WINDOW 3 32 56 VTop 2
SYMATTR InstName RF2
SYMATTR Value 100
SYMBOL voltage 64 208 R0
SYMATTR InstName V1
SYMATTR Value 1.5
SYMBOL res -16 80 R90
WINDOW 0 0 56 VBottom 2
WINDOW 3 32 56 VTop 2
SYMATTR InstName RG1
SYMATTR Value 93.1
SYMBOL res 16 176 R90
WINDOW 0 0 56 VBottom 2
WINDOW 3 32 56 VTop 2
SYMATTR InstName RG2
SYMATTR Value 93.1
SYMBOL voltage -368 96 R0
WINDOW 123 39 65 Left 2
WINDOW 39 25 94 Left 2
SYMATTR Value2 AC 1 0
SYMATTR SpiceLine Rser=50
SYMATTR InstName Vin
SYMATTR Value ""
SYMBOL res -240 96 R0
SYMATTR InstName RT1
SYMATTR Value 80.6
SYMBOL res -160 192 R0
SYMATTR InstName RT2
SYMATTR Value {RBAL}
SYMBOL Opamps\\LTC6404-1 288 144 R0
SYMATTR InstName U2
TEXT 568 360 Left 2 !.noise V(OUT+,OUT-) VIN dec 100 1E4 2E8
TEXT 568 424 Left 2 !.PARAM RBAL=30.1\n.STEP PARAM RBAL LIST 30.1 0.001
TEXT 552 120 Left 2 ;There is higher noise without\n balanced input resistance\ndue to increased gain and mismatch
TEXT -408 552 Left 2 ;Note:\n  If the simulation model is not found please update with the "Sync Release" command from the "Tools" menu.\n  It remains the customer's responsibility to verify proper and reliable operation in the actual application.\n  Component substitution and printed circuit board layout may significantly affect circuit performance or reliability.\n  Contact your local sales representative for assistance. This circuit is distributed to customers only for use with LTC parts.\n  Copyright © 2012 Linear Technology Inc. All rights reserved.
TEXT 280 -112 Bottom 2 ;LTC6404-1 - 600MHz, Low Noise, High Precision Fully Differential Input/Output Amplifier/Driver \nImpedance Matching & Noise Measurements for Fully Differential Amplifiers\nThis simulation demonstrates the effect of input resistance mismatch on circuit output noise\nMore information on noise calculations is available in the LTC6404 datasheet
TEXT -288 344 Center 2 ;The resistor is stepped from a balanced case (i.e. the \nparallel combination of 50 and 80.6 ohms) to an unba-\nlanced case (tied to ground)  The noise plots show that\nthis change can significantly affect the output noise\n \nThe balanced case is shown on the green trace and the\nunbalanced case is shown on the blue trace
