Version 4
SHEET 1 1728 1716
WIRE 240 928 32 928
WIRE 576 928 320 928
WIRE 32 1024 32 928
WIRE 64 1024 32 1024
WIRE 288 1024 256 1024
WIRE -272 1040 -288 1040
WIRE -32 1040 -192 1040
WIRE -624 1072 -624 1056
WIRE -496 1072 -496 1056
WIRE -32 1088 -32 1040
WIRE 64 1088 -32 1088
WIRE 288 1088 288 1024
WIRE 288 1088 256 1088
WIRE 368 1088 288 1088
WIRE 576 1088 576 928
WIRE 576 1088 528 1088
WIRE 592 1088 576 1088
WIRE 368 1120 352 1120
WIRE 64 1152 -32 1152
WIRE 288 1152 256 1152
WIRE 368 1152 288 1152
WIRE 576 1152 528 1152
WIRE 592 1152 576 1152
WIRE -624 1168 -624 1152
WIRE -496 1168 -496 1152
WIRE -272 1200 -288 1200
WIRE -32 1200 -32 1152
WIRE -32 1200 -192 1200
WIRE 64 1216 32 1216
WIRE 288 1216 288 1152
WIRE 288 1216 256 1216
WIRE 400 1216 400 1200
WIRE 432 1216 432 1200
WIRE 32 1328 32 1216
WIRE 256 1328 32 1328
WIRE 576 1328 576 1152
WIRE 576 1328 336 1328
FLAG 400 1216 0
FLAG -496 1168 0
FLAG -288 1040 0
FLAG -624 1168 0
FLAG 592 1088 Out+
FLAG 592 1152 Out-
FLAG -496 1056 +V
FLAG -624 1056 OCM
FLAG 352 1120 OCM
FLAG -32 1040 INM
FLAG -32 1200 INP
FLAG 400 1040 +V
FLAG 432 1216 +V
FLAG -288 1200 0
SYMBOL Opamps\\LTC6362 432 1120 R0
WINDOW 3 21 65 Left 2
SYMATTR InstName U1
SYMBOL Misc\\LT5400-1 160 1120 R0
WINDOW 3 -3 147 Top 2
SYMATTR InstName U2
SYMBOL voltage -496 1056 R0
WINDOW 123 24 138 Left 2
WINDOW 39 24 117 Left 2
SYMATTR InstName V1
SYMATTR Value 5
SYMBOL voltage -176 1040 R90
WINDOW 123 74 56 VTop 2
WINDOW 39 53 56 VTop 2
WINDOW 3 32 56 VTop 2
WINDOW 0 -32 56 VBottom 2
SYMATTR Value SINE(2.5 0.5 1K 0.1m 0 0)
SYMATTR InstName V3
SYMBOL voltage -624 1056 R0
WINDOW 123 24 138 Left 2
WINDOW 39 24 117 Left 2
SYMATTR InstName V4
SYMATTR Value 2.5
SYMBOL voltage -176 1200 R90
WINDOW 123 74 56 VTop 2
WINDOW 39 53 56 VTop 2
WINDOW 3 32 56 VTop 2
WINDOW 0 -32 56 VBottom 2
SYMATTR Value SINE(2.5 -0.5 1K 0.1m 0)
SYMATTR InstName V2
SYMBOL res 336 912 R90
WINDOW 0 0 56 VBottom 2
WINDOW 3 32 56 VTop 2
SYMATTR InstName R1
SYMATTR Value 10K
SYMBOL res 352 1312 R90
WINDOW 0 0 56 VBottom 2
WINDOW 3 32 56 VTop 2
SYMATTR InstName R2
SYMATTR Value 10K
TEXT 600 1304 Left 2 !.tran .006
TEXT -40 896 Bottom 2 ;LTC6362 - Precision, Low Power Rail-to-Rail Input/Output Differential Op Amp/SAR ADC Driver\nLT5400 - Quad Matched Resistor Network\nDifferential Input/Output ADC Driver using Matched Resistors\nInput: 1Vp-p     Output: 2Vp-p, Gain of Av = 2
TEXT -728 1368 Left 2 ;Note:\n  If the simulation model is not found please update with the "Sync Release" command from the "Tools" menu.\n  It remains the customer's responsibility to verify proper and reliable operation in the actual application.\n  Component substitution and printed circuit board layout may significantly affect circuit performance or reliability.\n  Contact your local sales representative for assistance. This circuit is distributed to customers only for use with LTC parts.\n  Copyright © 2013 Linear Technology Inc. All rights reserved.
