Version 4
SHEET 1 1008 724
WIRE 144 -80 48 -80
WIRE 416 -80 208 -80
WIRE -384 -16 -464 -16
WIRE -224 -16 -304 -16
WIRE -64 -16 -224 -16
WIRE 48 -16 48 -80
WIRE 48 -16 16 -16
WIRE 272 -16 48 -16
WIRE 416 -16 416 -80
WIRE 416 -16 352 -16
WIRE -464 16 -464 -16
WIRE 192 64 192 32
WIRE 416 112 416 -16
WIRE 416 112 384 112
WIRE 448 112 416 112
WIRE -464 128 -464 96
WIRE 48 160 48 -16
WIRE 80 160 48 160
WIRE -224 176 -224 -16
WIRE 400 176 384 176
WIRE -48 208 -64 208
WIRE 80 208 32 208
WIRE 400 240 384 240
WIRE -464 256 -464 240
WIRE 80 256 48 256
WIRE 416 304 384 304
WIRE 448 304 416 304
WIRE -464 352 -464 336
WIRE 192 384 192 352
WIRE -224 432 -224 256
WIRE -224 432 -352 432
WIRE -176 432 -224 432
WIRE -64 432 -96 432
WIRE 48 432 48 256
WIRE 48 432 16 432
WIRE 272 432 48 432
WIRE 416 432 416 304
WIRE 416 432 352 432
WIRE -352 448 -352 432
WIRE -224 448 -224 432
WIRE 48 496 48 432
WIRE 144 496 48 496
WIRE 416 496 416 432
WIRE 416 496 208 496
WIRE -352 544 -352 528
WIRE -224 544 -224 512
FLAG -464 240 +V
FLAG 192 384 +V
FLAG -464 352 0
FLAG 192 32 0
FLAG -464 128 0
FLAG -64 208 0
FLAG -352 544 0
FLAG -224 544 0
FLAG 448 112 OUT-
FLAG 448 304 OUT+
FLAG -464 -16 IN
SYMBOL voltage -464 240 R0
SYMATTR InstName V1
SYMATTR Value 3
SYMBOL res 368 -32 R90
WINDOW 0 0 56 VBottom 2
WINDOW 3 32 56 VTop 2
SYMATTR InstName R1
SYMATTR Value 665
SYMBOL res 368 416 R90
WINDOW 0 0 56 VBottom 2
WINDOW 3 32 56 VTop 2
SYMATTR InstName R2
SYMATTR Value 665
SYMBOL res 32 416 R90
WINDOW 0 0 56 VBottom 2
WINDOW 3 32 56 VTop 2
SYMATTR InstName R3
SYMATTR Value 150
SYMBOL res -288 -32 R90
WINDOW 0 0 56 VBottom 2
WINDOW 3 32 56 VTop 2
SYMATTR InstName R4
SYMATTR Value 75
SYMBOL voltage -464 0 R0
WINDOW 123 0 0 Left 2
WINDOW 39 0 0 Left 2
SYMATTR InstName V2
SYMATTR Value SINE(2.5 .5 1Meg)
SYMBOL opamps\\LTC6406 208 208 M180
SYMATTR InstName U1
SYMBOL voltage -352 432 R0
WINDOW 123 0 0 Left 2
WINDOW 39 0 0 Left 2
SYMATTR InstName V3
SYMATTR Value 2.5
SYMBOL res -240 160 R0
SYMATTR InstName R5
SYMATTR Value 102
SYMBOL cap -240 448 R0
SYMATTR InstName C1
SYMATTR Value 10µ
SYMBOL voltage 48 208 R90
WINDOW 0 -32 56 VBottom 2
WINDOW 3 32 56 VTop 2
WINDOW 123 0 0 Left 2
WINDOW 39 0 0 Left 2
SYMATTR InstName V4
SYMATTR Value 1.25
SYMBOL res -80 416 R90
WINDOW 0 0 56 VBottom 2
WINDOW 3 32 56 VTop 2
SYMATTR InstName R6
SYMATTR Value 43.2
SYMBOL res 32 -32 R90
WINDOW 0 0 56 VBottom 2
WINDOW 3 32 56 VTop 2
SYMATTR InstName R7
SYMATTR Value 150
SYMBOL cap 208 -96 R90
WINDOW 0 0 32 VBottom 2
WINDOW 3 32 32 VTop 2
SYMATTR InstName C2
SYMATTR Value 1.8p
SYMBOL cap 208 480 R90
WINDOW 0 0 32 VBottom 2
WINDOW 3 32 32 VTop 2
SYMATTR InstName C3
SYMATTR Value 1.8p
TEXT 312 536 Left 2 !.tran 10u
TEXT -16 -128 Bottom 2 ;LTC6406 - 3GHz, Low Noise, Rail-to-Rail Input Differential Amplifier/Driver\nDifferential Amplifier with Impedance Matching to a 75 Ohm Source & Level Shifting\nInput: ±1Vp-p, Centered at 2.5V     Output: ±1Vp-p, Centered at 1.25V
TEXT -648 560 Left 2 ;Note:\n  If the simulation model is not found please update with the "Sync Release" command from the "Tools" menu.\n  It remains the customer's responsibility to verify proper and reliable operation in the actual application.\n  Component substitution and printed circuit board layout may significantly affect circuit performance or reliability.\n  Contact your local sales representative for assistance. This circuit is distributed to customers only for use with LTC parts.\n  Copyright © 2013 Linear Technology Inc. All rights reserved.
