Version 4
SHEET 1 1184 732
WIRE 96 -48 64 -48
WIRE 208 -48 176 -48
WIRE 272 -48 208 -48
WIRE 400 -48 336 -48
WIRE -128 16 -128 0
WIRE -32 16 -32 0
WIRE 208 48 208 -48
WIRE 256 48 208 48
WIRE 400 48 400 -48
WIRE 400 48 336 48
WIRE -128 112 -128 96
WIRE -32 112 -32 96
WIRE 272 160 272 144
WIRE 48 192 48 176
WIRE 208 208 208 48
WIRE 240 208 208 208
WIRE 400 240 400 48
WIRE 400 240 384 240
WIRE 416 240 400 240
WIRE -96 272 -192 272
WIRE -64 272 -96 272
WIRE 48 272 48 256
WIRE 48 272 16 272
WIRE 96 272 48 272
WIRE 208 272 176 272
WIRE 240 272 208 272
WIRE -192 288 -192 272
WIRE 272 352 272 320
WIRE -192 384 -192 368
WIRE -96 384 -96 272
WIRE -48 384 -96 384
WIRE 48 384 16 384
WIRE 96 384 48 384
WIRE 208 384 208 272
WIRE 208 384 160 384
WIRE 48 400 48 384
WIRE 48 496 48 480
FLAG -128 112 0
FLAG -32 112 0
FLAG 272 144 +V
FLAG -128 0 +V
FLAG -32 0 -V
FLAG 272 352 -V
FLAG 64 -48 0
FLAG -192 384 0
FLAG 48 496 0
FLAG 48 176 0
FLAG -192 272 IN
FLAG 416 240 OUT
SYMBOL voltage -128 0 R0
SYMATTR InstName V1
SYMATTR Value 5
SYMBOL voltage -32 0 R0
SYMATTR InstName V2
SYMATTR Value -5
SYMBOL cap 336 -64 R90
WINDOW 0 0 32 VBottom 2
WINDOW 3 32 32 VTop 2
SYMATTR InstName C1
SYMATTR Value 47p
SYMBOL res 192 -64 R90
WINDOW 0 0 56 VBottom 2
WINDOW 3 32 56 VTop 2
SYMATTR InstName R1
SYMATTR Value 10K
SYMBOL res 352 32 R90
WINDOW 0 0 56 VBottom 2
WINDOW 3 32 56 VTop 2
SYMATTR InstName R2
SYMATTR Value 1Meg
SYMBOL voltage -192 272 R0
SYMATTR InstName V3
SYMATTR Value ac 1
SYMBOL res 32 256 R90
WINDOW 0 0 56 VBottom 2
WINDOW 3 32 56 VTop 2
SYMATTR InstName R3
SYMATTR Value 2Meg
SYMBOL res 192 256 R90
WINDOW 0 0 56 VBottom 2
WINDOW 3 32 56 VTop 2
SYMATTR InstName R4
SYMATTR Value 2Meg
SYMBOL res 32 384 R0
SYMATTR InstName R5
SYMATTR Value 1Meg
SYMBOL cap 16 368 R90
WINDOW 0 0 32 VBottom 2
WINDOW 3 32 32 VTop 2
SYMATTR InstName C2
SYMATTR Value 3.9p
SYMBOL cap 160 368 R90
WINDOW 0 0 32 VBottom 2
WINDOW 3 32 32 VTop 2
SYMATTR InstName C3
SYMATTR Value 3.9p
SYMBOL cap 32 256 M180
WINDOW 0 24 64 Left 2
WINDOW 3 24 8 Left 2
SYMATTR InstName C4
SYMATTR Value 8.2p
SYMBOL LTC6081 272 240 R0
SYMATTR InstName U2
TEXT 384 384 Left 2 !.ac oct 10 1 1Meg
TEXT 136 -112 Bottom 2 ;LTC6081 - Precision Dual CMOS Rail-to-Rail Input/Output Amplifiers\nShock Sensor Amplifier (Accelerometer)
TEXT -488 520 Left 2 ;Note:\n  If the simulation model is not found please update with the "Sync Release" command from the "Tools" menu.\n  It remains the customer's responsibility to verify proper and reliable operation in the actual application.\n  Component substitution and printed circuit board layout may significantly affect circuit performance or reliability.\n  Contact your local sales representative for assistance. This circuit is distributed to customers only for use with LTC parts.\n  Copyright © 2014 Linear Technology Inc. All rights reserved.
