Version 4
SHEET 1 2788 1196
WIRE 96 -80 80 -80
WIRE 320 -80 160 -80
WIRE 528 -64 528 -80
WIRE 752 -64 752 -80
WIRE 976 -64 976 -80
WIRE -192 -16 -416 -16
WIRE -64 -16 -192 -16
WIRE 48 -16 16 -16
WIRE 80 -16 80 -80
WIRE 80 -16 48 -16
WIRE 192 -16 80 -16
WIRE 320 -16 320 -80
WIRE 320 -16 272 -16
WIRE -416 0 -416 -16
WIRE -192 0 -192 -16
WIRE 320 32 320 -16
WIRE 384 32 320 32
WIRE 528 32 528 0
WIRE 528 32 464 32
WIRE 608 32 528 32
WIRE 752 32 752 0
WIRE 752 32 688 32
WIRE 832 32 752 32
WIRE 976 32 976 0
WIRE 976 32 912 32
WIRE 1104 32 976 32
WIRE 1216 32 1104 32
WIRE 1328 48 1296 48
WIRE 128 64 128 48
WIRE 1104 80 1104 32
WIRE -416 96 -416 80
WIRE -192 96 -192 80
WIRE 528 96 528 32
WIRE 752 96 752 32
WIRE 976 96 976 32
WIRE 1296 96 1296 48
WIRE 48 112 48 -16
WIRE 96 112 48 112
WIRE 320 112 320 32
WIRE 320 112 256 112
WIRE 1216 112 1216 32
WIRE 1248 112 1216 112
WIRE 96 144 16 144
WIRE 1248 160 1216 160
WIRE 96 176 48 176
WIRE 320 176 256 176
WIRE 320 224 320 176
WIRE 384 224 320 224
WIRE 528 224 528 160
WIRE 528 224 464 224
WIRE 608 224 528 224
WIRE 752 224 752 160
WIRE 752 224 688 224
WIRE 832 224 752 224
WIRE 976 224 976 160
WIRE 976 224 912 224
WIRE 1104 224 1104 160
WIRE 1104 224 976 224
WIRE 1216 224 1216 160
WIRE 1216 224 1104 224
WIRE -320 240 -416 240
WIRE -192 240 -320 240
WIRE -176 240 -192 240
WIRE -64 240 -176 240
WIRE 48 240 48 176
WIRE 48 240 16 240
WIRE 128 240 128 224
WIRE 528 240 528 224
WIRE 752 240 752 224
WIRE 976 240 976 224
WIRE -416 256 -416 240
WIRE -192 256 -192 240
WIRE 48 288 48 240
WIRE 80 288 48 288
WIRE 192 288 80 288
WIRE 320 288 320 224
WIRE 320 288 272 288
WIRE 528 320 528 304
WIRE 752 320 752 304
WIRE 976 320 976 304
WIRE -416 352 -416 336
WIRE -192 352 -192 336
WIRE 80 352 80 288
WIRE 128 352 80 352
WIRE 320 352 320 288
WIRE 320 352 192 352
WIRE -320 448 -320 240
WIRE -304 448 -320 448
WIRE -368 624 -368 608
WIRE -240 624 -240 608
WIRE -368 720 -368 704
WIRE -240 720 -240 704
FLAG -416 352 0
FLAG -192 352 0
FLAG -192 96 0
FLAG -368 720 0
FLAG -368 608 Vocm
FLAG 16 144 Vocm
FLAG 128 240 0
FLAG -240 720 0
FLAG -240 608 Vcc
FLAG 128 48 Vcc
FLAG 528 320 0
FLAG 752 320 0
FLAG 976 320 0
FLAG 976 -80 0
FLAG 752 -80 0
FLAG 528 -80 0
FLAG 1296 176 0
FLAG -416 96 0
FLAG -192 -16 SIGNAL
FLAG -176 240 VREF
FLAG 1328 48 Vbb-diff
FLAG -304 448 Vref
IOPIN -304 448 Out
SYMBOL Opamps\\LTC6362 160 144 R0
SYMATTR InstName U1
SYMBOL res 288 -32 R90
WINDOW 0 0 56 VBottom 2
WINDOW 3 32 56 VTop 2
SYMATTR InstName R1
SYMATTR Value 2.49K
SYMBOL res 32 -32 R90
WINDOW 0 0 56 VBottom 2
WINDOW 3 32 56 VTop 2
SYMATTR InstName R2
SYMATTR Value 732
SYMBOL res 32 224 R90
WINDOW 0 0 56 VBottom 2
WINDOW 3 32 56 VTop 2
SYMATTR InstName R3
SYMATTR Value 732
SYMBOL res 176 304 R270
WINDOW 0 32 56 VTop 2
WINDOW 3 0 56 VBottom 2
SYMATTR InstName R4
SYMATTR Value 2.49K
SYMBOL res -208 -16 R0
SYMATTR InstName R5
SYMATTR Value 1.87K
SYMBOL res -208 240 R0
SYMATTR InstName R6
SYMATTR Value 1.87K
SYMBOL voltage -416 -16 R0
WINDOW 123 24 138 Left 2
WINDOW 39 24 117 Left 2
SYMATTR Value2 AC 1
SYMATTR InstName V1
SYMATTR Value 0.512
SYMBOL voltage -416 240 R0
WINDOW 123 24 138 Left 2
WINDOW 39 24 117 Left 2
SYMATTR InstName V2
SYMATTR Value 0.512
SYMBOL VOLTAGE -368 608 R0
WINDOW 123 24 138 Left 2
WINDOW 39 24 117 Left 2
SYMATTR InstName V3
SYMATTR Value 1.4
SYMBOL VOLTAGE -240 608 R0
WINDOW 123 24 138 Left 2
WINDOW 39 24 117 Left 2
SYMATTR InstName V4
SYMATTR Value 3.3
SYMBOL res 480 16 R90
WINDOW 0 0 56 VBottom 2
WINDOW 3 32 56 VTop 2
SYMATTR InstName R7
SYMATTR Value 133
SYMBOL res 480 208 R90
WINDOW 0 0 56 VBottom 2
WINDOW 3 32 56 VTop 2
SYMATTR InstName R8
SYMATTR Value 133
SYMBOL res 1088 64 R0
SYMATTR InstName R9
SYMATTR Value 267
SYMBOL ind 592 48 R270
WINDOW 0 32 56 VTop 2
WINDOW 3 5 56 VBottom 2
SYMATTR InstName L1
SYMATTR Value 470µ
SYMBOL ind 816 48 R270
WINDOW 0 32 56 VTop 2
WINDOW 3 5 56 VBottom 2
SYMATTR InstName L2
SYMATTR Value 220µH
SYMBOL ind 592 240 R270
WINDOW 0 32 56 VTop 2
WINDOW 3 5 56 VBottom 2
SYMATTR InstName L3
SYMATTR Value 470µ
SYMBOL ind 816 240 R270
WINDOW 0 32 56 VTop 2
WINDOW 3 5 56 VBottom 2
SYMATTR InstName L4
SYMATTR Value 220µH
SYMBOL cap 512 96 R0
SYMATTR InstName C1
SYMATTR Value .013µ
SYMBOL cap 512 -64 R0
SYMATTR InstName C2
SYMATTR Value .027µ
SYMBOL cap 512 240 R0
SYMATTR InstName C3
SYMATTR Value .027µ
SYMBOL cap 736 96 R0
SYMATTR InstName C4
SYMATTR Value 4.7n
SYMBOL cap 736 -64 R0
SYMATTR InstName C5
SYMATTR Value .01µ
SYMBOL cap 736 240 R0
SYMATTR InstName C6
SYMATTR Value .01µ
SYMBOL cap 960 96 R0
SYMATTR InstName C7
SYMATTR Value 1n
SYMBOL cap 960 -64 R0
SYMATTR InstName C8
SYMATTR Value 2.2n
SYMBOL cap 960 240 R0
SYMATTR InstName C9
SYMATTR Value 2.2n
SYMBOL e 1296 80 R0
SYMATTR InstName E1
SYMATTR Value 1
SYMBOL cap 96 -64 R270
WINDOW 0 32 32 VTop 2
WINDOW 3 0 32 VBottom 2
SYMATTR InstName C10
SYMATTR Value 220p
SYMBOL cap 192 336 R90
WINDOW 0 0 32 VBottom 2
WINDOW 3 32 32 VTop 2
SYMATTR InstName C11
SYMATTR Value 220p
TEXT 504 400 Left 2 !.ac dec 1000 100 1000000
TEXT -48 568 Left 2 ;Notes:\n   If the simulation model is not found please update with the "Sync Release" command from the "Tools" menu.\n   It remains the customer's responsibility to verify proper and reliable operation in the actual application.\n   Component substitution and printed circuit board layout may significantly affect circuit performance or reliability.\n   Contact your local sales representative for assistance. This circuit is distributed to customers only for use with LTC parts.\n   Copyright © 2016 Linear Technology Inc. All rights reserved.
TEXT 768 -136 Bottom 3 ;DAC Re-Construct LPF
TEXT 144 -152 Bottom 3 ;Single-Ended to Diff. Driver
TEXT 1312 -112 Center 3 ;LTC5589 or LTC5599 \nIQ Modulator
TEXT 576 -208 Bottom 2 ;LTC5599 - 30MHz to 1300MHz Low Power Direct Quadrature Modulator\nLTC6362 - Precision, Low Power Rail-to-Rail Input/Output Differential Op Amp/SAR ADC Driver\nExample Baseband Design for a Low-Power IQ Modulator
TEXT -416 -48 Bottom 3 ;SIGNAL DAC
TEXT -544 8 Center 2 ;Single-ended \nDAC with \nvoltage output.
TEXT -584 256 Left 2 ;Fixed\nDC ref.\nat DAC\ncenter volt.
TEXT -232 432 Left 2 ;to opposite\nchannel
TEXT -496 400 Left 3 ;Vref DAC
TEXT -48 168 Left 2 ;+1.4V
TEXT 1256 -40 Left 2 ;Vcm= 1.4V
RECTANGLE Normal 1456 -8 1184 256 2
RECTANGLE Normal 1056 368 480 -128 2
RECTANGLE Normal 368 416 -88 -136 2
