Version 4
SHEET 1 2004 756
WIRE 208 -112 128 -112
WIRE 256 -112 208 -112
WIRE 336 -112 256 -112
WIRE 128 -96 128 -112
WIRE 256 -96 256 -112
WIRE 336 -96 336 -112
WIRE 128 0 128 -16
WIRE 256 0 256 -32
WIRE 336 0 336 -32
WIRE 208 48 208 -112
WIRE 400 80 352 80
WIRE -80 128 -272 128
WIRE 96 128 0 128
WIRE -16 192 -128 192
WIRE 96 192 64 192
WIRE -272 208 -272 128
WIRE -128 208 -128 192
WIRE -320 224 -416 224
WIRE -176 224 -320 224
WIRE -416 240 -416 224
WIRE 400 240 352 240
WIRE -272 304 -272 288
WIRE -128 304 -128 288
WIRE 160 320 160 288
WIRE 208 320 208 288
WIRE -416 336 -416 320
WIRE 256 336 256 288
WIRE 256 432 256 416
FLAG 208 320 0
FLAG 160 320 0
FLAG 128 0 0
FLAG 336 0 0
FLAG 256 0 0
FLAG 256 432 0
FLAG 400 80 OP
FLAG 400 240 OM
FLAG -176 272 0
FLAG -320 272 0
FLAG -416 336 0
FLAG -272 304 0
FLAG -128 304 0
SYMBOL Opamps\\LTC6400-20 224 160 R0
SYMATTR InstName U1
SYMBOL voltage 128 -112 R0
SYMATTR InstName V1
SYMATTR Value 3.0
SYMBOL cap 240 -96 R0
SYMATTR InstName CB1
SYMATTR Value 1000p
SYMBOL cap 320 -96 R0
SYMATTR InstName CB2
SYMATTR Value 0.1µ
SYMBOL voltage 256 320 R0
SYMATTR InstName V2
SYMATTR Value 1.25
SYMBOL res 16 112 R90
WINDOW 0 0 56 VBottom 2
WINDOW 3 32 56 VTop 2
SYMATTR InstName Rs1
SYMATTR Value 100
SYMBOL res 80 176 R90
WINDOW 0 0 56 VBottom 2
WINDOW 3 32 56 VTop 2
SYMATTR InstName Rs2
SYMATTR Value 100
SYMBOL e -272 192 R0
SYMATTR InstName E1
SYMATTR Value .5
SYMBOL e -128 192 R0
SYMATTR InstName E2
SYMATTR Value -.5
SYMBOL voltage -416 224 R0
SYMATTR InstName VS
SYMATTR Value AC 1
TEXT 400 376 Left 2 !.noise V(OP,OM) VS dec 100 1K 3G
TEXT 440 128 Left 2 ;NF is 20*LOG10(V(onoise)/(V(Rs1)+V(Rs2)))\nRatio of output noise to input referred noise
TEXT -432 448 Left 2 ;Note:\n  If the simulation model is not found please update with the "Sync Release" command from the "Tools" menu.\n  It remains the customer's responsibility to verify proper and reliable operation in the actual application.\n  Component substitution and printed circuit board layout may significantly affect circuit performance or reliability.\n  Contact your local sales representative for assistance. This circuit is distributed to customers only for use with LTC parts.\n  Copyright © 2012 Linear Technology Inc. All rights reserved.
TEXT 200 -128 Bottom 2 ;LT6400-20 - 1.8 GHz Low Noise, Low Distortion Differential ADC Driver for 300 MHz IF \nNoise Simulation for Fully-Differential Amplifiers\nAn example noise simulation for a fully-differential amplifier \nThe behavioral voltage source produces a 180 degree phase shifted version of the input\nMore information on noise and noise figure calculations is available in \nAN123, the LTC6400-20 datasheet, and the LTC6403 datasheet
