Version 4
SHEET 1 1156 1084
WIRE -320 -208 -816 -208
WIRE 256 -208 -96 -208
WIRE 496 -208 480 -208
WIRE -816 -192 -816 -208
WIRE -320 -128 -352 -128
WIRE 80 -128 -96 -128
WIRE 256 -128 224 -128
WIRE 656 -128 480 -128
WIRE 720 -128 656 -128
WIRE 720 -112 720 -128
WIRE -816 -96 -816 -112
WIRE -416 -48 -432 -48
WIRE -320 -48 -336 -48
WIRE -64 -48 -96 -48
WIRE -32 -48 -64 -48
WIRE 80 -48 80 -128
WIRE 80 -48 48 -48
WIRE 160 -48 144 -48
WIRE 256 -48 240 -48
WIRE 512 -48 480 -48
WIRE 544 -48 512 -48
WIRE 656 -48 656 -128
WIRE 656 -48 624 -48
WIRE -64 -16 -64 -48
WIRE 720 -16 720 -32
WIRE 512 0 512 -48
WIRE -64 96 -64 64
WIRE 512 96 512 80
WIRE 80 128 80 -48
WIRE 656 128 656 -48
WIRE 656 128 80 128
FLAG 720 -16 0
FLAG -816 -96 0
FLAG -352 -128 0
FLAG -432 -48 0
FLAG 144 -48 0
FLAG 224 -128 0
FLAG -816 -208 IN
FLAG 512 96 0
FLAG -64 96 0
FLAG 496 -208 OUT
SYMBOL res -320 -64 R90
WINDOW 0 0 56 VBottom 2
WINDOW 3 32 56 VTop 2
SYMATTR InstName R1
SYMATTR Value 604K
SYMBOL res 256 -64 R90
WINDOW 0 0 56 VBottom 2
WINDOW 3 32 56 VTop 2
SYMATTR InstName R2
SYMATTR Value 604K
SYMBOL voltage 720 -128 R0
WINDOW 123 0 0 Left 2
WINDOW 39 0 0 Left 2
SYMATTR InstName V2
SYMATTR Value 5
SYMBOL voltage -816 -208 R0
WINDOW 123 24 138 Left 2
WINDOW 39 24 117 Left 2
SYMATTR Value PULSE(0 5 10m 1u 1u 40m .2)
SYMATTR InstName V1
SYMBOL LTC6994-1 -208 -128 R0
SYMATTR InstName U3
SYMBOL LTC6994-1 368 -128 R0
SYMATTR InstName U1
SYMBOL res 640 -64 R90
WINDOW 0 0 56 VBottom 2
WINDOW 3 32 56 VTop 2
SYMATTR InstName R6
SYMATTR Value 1Meg
SYMBOL res 496 -16 R0
SYMATTR InstName R7
SYMATTR Value 392K
SYMBOL res -80 -32 R0
SYMATTR InstName R3
SYMATTR Value 1Meg
SYMBOL res 64 -64 R90
WINDOW 0 0 56 VBottom 2
WINDOW 3 32 56 VTop 2
SYMATTR InstName R4
SYMATTR Value 392K
TEXT 440 152 Left 2 !.tran 400m startup
TEXT -192 -248 Bottom 2 ;Falling Edge Delayed by 50msec
TEXT 368 -272 Top 2 ;Rising Edge Delayed by 50msec
TEXT -768 152 Left 2 ;Note:\n  Pulse Inputs must be Seperated by > Pulse Delay\n  If the simulation model is not found please update with the "Sync Release" command from the "Tools" menu.\n  It remains the customer's responsibility to verify proper and reliable operation in the actual application.\n  Component substitution and printed circuit board layout may significantly affect circuit performance or reliability.\n  Contact your local sales representative for assistance. This circuit is distributed to customers only for use with LTC parts.\n  Copyright © 2014 Linear Technology Inc. All rights reserved.
TEXT -96 -296 Bottom 2 ;LTC6994 - TimerBlox: Delay Block/ Debouncer\nProgramable Pulse Delay Block\n10ms Pulse Delayed by 50ms
