Version 4
SHEET 1 2888 680
WIRE 96 96 -432 96
WIRE 496 96 320 96
WIRE 752 96 496 96
WIRE 1168 96 976 96
WIRE 1376 96 1168 96
WIRE 1824 96 1600 96
WIRE 2000 96 1824 96
WIRE 2688 96 2224 96
WIRE 2688 112 2688 96
WIRE -432 128 -432 96
WIRE 96 176 80 176
WIRE 368 176 320 176
WIRE 480 176 368 176
WIRE 576 176 480 176
WIRE 752 176 736 176
WIRE 1088 176 976 176
WIRE 1200 176 1088 176
WIRE 1376 176 1360 176
WIRE 1712 176 1600 176
WIRE 1824 176 1712 176
WIRE 2000 176 1984 176
WIRE 2336 176 2224 176
WIRE 2464 176 2336 176
WIRE 2576 176 2464 176
WIRE 368 192 368 176
WIRE 576 192 576 176
WIRE 1088 192 1088 176
WIRE 1200 192 1200 176
WIRE 1712 192 1712 176
WIRE 1824 192 1824 176
WIRE 2336 192 2336 176
WIRE 2464 192 2464 176
WIRE 2576 192 2576 176
WIRE 480 208 480 176
WIRE 2688 208 2688 192
WIRE -432 240 -432 208
WIRE -64 256 -144 256
WIRE 48 256 16 256
WIRE 96 256 48 256
WIRE 336 256 320 256
WIRE 752 256 688 256
WIRE 1024 256 976 256
WIRE 1376 256 1312 256
WIRE 1648 256 1600 256
WIRE 2000 256 1936 256
WIRE 2272 256 2224 256
WIRE -144 288 -144 256
WIRE 48 288 48 256
WIRE 336 288 336 256
WIRE 368 288 368 272
WIRE 368 288 336 288
WIRE 480 288 480 272
WIRE 576 288 576 272
WIRE 688 288 688 256
WIRE 1088 288 1088 256
WIRE 1200 288 1200 272
WIRE 1312 288 1312 256
WIRE 1712 288 1712 256
WIRE 1824 288 1824 272
WIRE 1936 288 1936 256
WIRE 2272 288 2272 256
WIRE 2336 288 2336 272
WIRE 2336 288 2272 288
WIRE 2464 288 2464 256
WIRE 2576 288 2576 272
WIRE 368 304 368 288
WIRE 2336 320 2336 288
WIRE -144 384 -144 368
WIRE 48 384 48 368
WIRE 688 384 688 368
WIRE 1312 384 1312 368
WIRE 1936 384 1936 368
WIRE 368 400 368 384
WIRE 2336 416 2336 400
WIRE 1024 432 1024 256
WIRE 1648 432 1648 256
WIRE 1648 432 1024 432
WIRE 2272 432 2272 288
WIRE 2272 432 1648 432
FLAG -432 240 0
FLAG 480 288 0
FLAG 368 400 0
FLAG 80 176 0
FLAG 1200 288 0
FLAG 688 384 0
FLAG 736 176 0
FLAG -144 384 0
FLAG 48 384 0
FLAG 576 288 0
FLAG 1088 288 0
FLAG 1824 288 0
FLAG 1312 384 0
FLAG 1360 176 0
FLAG 1712 288 0
FLAG 2576 288 0
FLAG 1936 384 0
FLAG 1984 176 0
FLAG 496 96 Delay
FLAG 1168 96 Test1
FLAG 1824 96 Test2
FLAG 2688 208 0
FLAG 2688 96 Test3
FLAG 2336 416 0
FLAG 2464 288 0
SYMBOL res 32 240 R90
WINDOW 0 0 56 VBottom 0
WINDOW 3 32 56 VTop 0
SYMATTR InstName R1
SYMATTR Value 274K
SYMBOL res 352 176 R0
SYMATTR InstName R2
SYMATTR Value 1Meg
SYMBOL res 352 288 R0
SYMATTR InstName R3
SYMATTR Value 887K
SYMBOL voltage -432 112 R0
WINDOW 123 24 146 Left 0
WINDOW 39 24 125 Left 0
SYMATTR Value PWL(0 0 1 0 1.01 3.3)
SYMATTR InstName V1
SYMBOL res 672 272 R0
SYMATTR InstName R4
SYMATTR Value 191K
SYMBOL voltage 1200 176 R0
WINDOW 123 0 0 Left 0
WINDOW 39 0 0 Left 0
SYMATTR InstName V2
SYMATTR Value 5
SYMBOL SpecialFunctions\\LTC6993-1 864 176 R0
SYMATTR InstName U1
SYMBOL voltage -144 272 R0
WINDOW 123 0 0 Left 0
WINDOW 39 0 0 Left 0
SYMATTR InstName V3
SYMATTR Value 2.5
SYMBOL res 32 272 R0
SYMATTR InstName R5
SYMATTR Value 63.4K
SYMBOL cap 464 208 R0
SYMATTR InstName C1
SYMATTR Value 0.1µ
SYMBOL SpecialFunctions\\LTC6994-1 208 176 R0
SYMATTR InstName U2
SYMBOL voltage 576 176 R0
WINDOW 123 0 0 Left 0
WINDOW 39 0 0 Left 0
SYMATTR InstName V4
SYMATTR Value 5
SYMBOL cap 1072 192 R0
SYMATTR InstName C2
SYMATTR Value 0.1µ
SYMBOL res 1296 272 R0
SYMATTR InstName R6
SYMATTR Value 191K
SYMBOL voltage 1824 176 R0
WINDOW 123 0 0 Left 0
WINDOW 39 0 0 Left 0
SYMATTR InstName V5
SYMATTR Value 5
SYMBOL cap 1696 192 R0
SYMATTR InstName C3
SYMATTR Value 0.1µ
SYMBOL res 1920 272 R0
SYMATTR InstName R7
SYMATTR Value 191K
SYMBOL voltage 2576 176 R0
WINDOW 123 0 0 Left 0
WINDOW 39 0 0 Left 0
SYMATTR InstName V6
SYMATTR Value 5
SYMBOL cap 2448 192 R0
SYMATTR InstName C4
SYMATTR Value 0.1µ
SYMBOL res 2320 176 R0
SYMATTR InstName R8
SYMATTR Value 1Meg
SYMBOL res 2320 304 R0
SYMATTR InstName R9
SYMATTR Value 681K
SYMBOL res 2672 96 R0
SYMATTR InstName R10
SYMATTR Value 100K
SYMBOL SpecialFunctions\\LTC6993-3 1488 176 R0
SYMATTR InstName U5
SYMBOL SpecialFunctions\\LTC6993-3 2112 176 R0
SYMATTR InstName U3
TEXT 2480 368 Left 0 !.tran 10 startup
TEXT 1200 24 Bottom 0 ;LTC6993 - TimerBlox:Monostable Pulse Generator (One Shot)\nLTC6994 - TimerBlox: Delay Block/ Debouncer\nConsecutive Test Sequencer (One Second Duration Sequential Test Pulses after an Initial Delay)
TEXT 672 472 Left 0 ;Note:\n  If the simulation model is not found please update with the "Sync Release" command from the "Tools" menu.\n  It remains the customer's responsibility to verify proper and reliable operation in the actual application.\n  Component substitution and printed circuit board layout may significantly affect circuit performance or reliability.\n  Contact your local sales representative for assistance. This circuit is distributed to customers only for use with LTC parts.\n  Copyright © 2010 Linear Technology Inc. All rights reserved.
TEXT 1392 456 Left 0 ;Shared DIV Pin Biasing for Equal One-Shot Timers
