Version 4
SHEET 1 2096 780
WIRE 208 -112 112 -112
WIRE 240 -112 208 -112
WIRE 336 -112 240 -112
WIRE 112 -96 112 -112
WIRE 240 -96 240 -112
WIRE 336 -96 336 -112
WIRE 112 0 112 -16
WIRE 240 0 240 -32
WIRE 336 0 336 -32
WIRE 208 48 208 -112
WIRE -48 80 -288 80
WIRE 64 80 32 80
WIRE 400 80 352 80
WIRE -288 112 -288 80
WIRE 64 128 64 80
WIRE 96 128 64 128
WIRE 96 192 64 192
WIRE 400 240 352 240
WIRE -288 256 -288 192
WIRE -48 256 -288 256
WIRE 64 256 64 192
WIRE 64 256 32 256
WIRE 160 320 160 288
WIRE 208 320 208 288
WIRE 256 336 256 288
WIRE 256 432 256 416
FLAG 208 320 0
FLAG 160 320 0
FLAG 112 0 0
FLAG 336 0 0
FLAG 240 0 0
FLAG 256 432 0
FLAG 400 80 OP
FLAG 400 240 OM
SYMBOL voltage -288 96 R0
WINDOW 123 39 59 Left 2
WINDOW 39 24 114 Left 2
WINDOW 3 21 96 Left 2
SYMATTR Value2 AC 1 0
SYMATTR Value PULSE(0 1 100n 1p 1p 100n)
SYMATTR InstName VS
SYMBOL voltage 112 -112 R0
SYMATTR InstName V+
SYMATTR Value 3.0
SYMBOL cap 224 -96 R0
SYMATTR InstName CB1
SYMATTR Value 1000p
SYMBOL cap 320 -96 R0
SYMATTR InstName CB2
SYMATTR Value 0.1µ
SYMBOL voltage 256 320 R0
SYMATTR InstName VOCM
SYMATTR Value 1.25
SYMBOL Opamps\\LTC6401-8 224 160 R0
SYMATTR InstName U1
SYMBOL res 48 64 R90
WINDOW 0 0 56 VBottom 2
WINDOW 3 32 56 VTop 2
SYMATTR InstName R1
SYMATTR Value 294
SYMBOL res 48 240 R90
WINDOW 0 0 56 VBottom 2
WINDOW 3 32 56 VTop 2
SYMATTR InstName R2
SYMATTR Value 294
TEXT 448 432 Left 2 !.ac dec 100 1Meg 3G
TEXT -64 360 Center 2 ;Differential Input resistance is \n294 (external) + 200 (internal)\nFeedback resistance is 500 (internal)\nTotal gain = 500/494=1.01
TEXT 232 480 Top 2 ;Warning: Gain can vary ±13% due to temp/process variations of internal resistors
TEXT 416 160 Left 2 ;Gain is V(OP,OM)
TEXT -408 520 Left 2 ;Note:\n  If the simulation model is not found please update with the "Sync Release" command from the "Tools" menu.\n  It remains the customer's responsibility to verify proper and reliable operation in the actual application.\n  Component substitution and printed circuit board layout may significantly affect circuit performance or reliability.\n  Contact your local sales representative for assistance. This circuit is distributed to customers only for use with LTC parts.\n  Copyright © 2012 Linear Technology Inc. All rights reserved.
TEXT 224 -128 Bottom 2 ;LTC6401-8 - 2GHz Low Noise, Low Distortion Differential ADC Driver for DC-140MHz\nUnity Gain for Fully-Differential Amplifiers\nCircuit demonstrates how to select external resistors for a gain of 1\nMore overshoot will occur due to decreased phase margin
LINE Normal -16 304 -32 352 2
LINE Normal 128 208 -16 352 2
