Version 4
SHEET 1 1136 680
WIRE 288 -272 -176 -272
WIRE 288 -256 288 -272
WIRE -352 -160 -448 -160
WIRE -176 -160 -176 -272
WIRE -176 -160 -352 -160
WIRE -16 -160 -176 -160
WIRE 288 -160 288 -176
WIRE 288 -160 240 -160
WIRE -448 -128 -448 -160
WIRE -352 -128 -352 -160
WIRE -176 -112 -176 -160
WIRE -176 -112 -256 -112
WIRE -112 -112 -176 -112
WIRE -256 -80 -256 -112
WIRE -112 -80 -112 -112
WIRE 512 -64 448 -64
WIRE 640 -64 576 -64
WIRE -448 -32 -448 -48
WIRE -352 -32 -352 -64
WIRE 112 -32 112 -48
WIRE -256 32 -256 0
WIRE -256 32 -304 32
WIRE -112 32 -112 0
WIRE -32 32 -112 32
WIRE 80 32 48 32
WIRE 144 32 80 32
WIRE 288 32 288 -160
WIRE 288 32 224 32
WIRE 336 32 288 32
WIRE 448 32 448 -64
WIRE 448 32 416 32
WIRE 512 32 448 32
WIRE 640 32 640 -64
WIRE 640 32 592 32
WIRE 288 48 288 32
WIRE -448 64 -448 48
WIRE -256 64 -256 32
WIRE -112 64 -112 32
WIRE 288 128 288 112
WIRE 448 128 448 32
WIRE 464 128 448 128
WIRE -448 160 -448 144
WIRE -256 160 -256 144
WIRE -176 160 -256 160
WIRE -112 160 -112 144
WIRE -112 160 -176 160
WIRE 80 160 80 32
WIRE 96 160 80 160
WIRE 640 160 640 32
WIRE 640 160 608 160
WIRE 656 160 640 160
WIRE -176 192 -176 160
WIRE 288 192 240 192
WIRE 464 192 288 192
WIRE -304 224 -304 32
WIRE -32 224 -304 224
WIRE 80 224 48 224
WIRE 96 224 80 224
WIRE -448 240 -448 224
WIRE -448 336 -448 320
WIRE 80 384 80 224
WIRE 144 384 80 384
WIRE 288 384 288 192
WIRE 288 384 224 384
FLAG 112 -32 0
FLAG -352 -32 0
FLAG -448 -32 0
FLAG -176 192 0
FLAG 288 128 0
FLAG -448 336 0
FLAG -448 160 0
FLAG -448 48 +V
FLAG -448 224 -V
FLAG 128 272 +V
FLAG 496 80 +V
FLAG 128 112 -V
FLAG 496 240 -V
FLAG -112 32 IN+
FLAG -256 32 IN-
FLAG 656 160 OUT
SYMBOL LTC6081 128 192 M180
WINDOW 0 65 52 Left 2
WINDOW 3 46 -58 Left 2
SYMATTR InstName U1
SYMBOL LTC6081 496 160 R0
SYMATTR InstName U2
SYMBOL res 240 368 R90
WINDOW 0 0 56 VBottom 2
WINDOW 3 32 56 VTop 2
SYMATTR InstName R1
SYMATTR Value 10Meg
SYMBOL res 64 208 R90
WINDOW 0 0 56 VBottom 2
WINDOW 3 32 56 VTop 2
SYMATTR InstName R2
SYMATTR Value 10Meg
SYMBOL res 64 16 R90
WINDOW 0 0 56 VBottom 2
WINDOW 3 32 56 VTop 2
SYMATTR InstName R3
SYMATTR Value 10Meg
SYMBOL res 240 16 R90
WINDOW 0 0 56 VBottom 2
WINDOW 3 32 56 VTop 2
SYMATTR InstName R4
SYMATTR Value 10Meg
SYMBOL LT1790-1.25 112 -160 R0
SYMATTR InstName U3
SYMBOL res -272 -96 R0
SYMATTR InstName R6
SYMATTR Value 350
SYMBOL res -128 -96 R0
SYMATTR InstName R7
SYMATTR Value {X}
SYMBOL res -272 48 R0
SYMATTR InstName R8
SYMATTR Value 350
SYMBOL res -128 48 R0
SYMATTR InstName R9
SYMATTR Value 350
SYMBOL voltage -448 -144 R0
WINDOW 123 0 0 Left 2
WINDOW 39 0 0 Left 2
SYMATTR InstName V1
SYMATTR Value 3
SYMBOL cap -368 -128 R0
SYMATTR InstName C1
SYMATTR Value 10µ
SYMBOL res 272 -272 R0
SYMATTR InstName R10
SYMATTR Value 10K
SYMBOL res 608 16 R90
WINDOW 0 0 56 VBottom 2
WINDOW 3 32 56 VTop 2
SYMATTR InstName R11
SYMATTR Value 100
SYMBOL cap 272 48 R0
SYMATTR InstName C2
SYMATTR Value .1µ
SYMBOL voltage -448 48 R0
WINDOW 123 0 0 Left 2
WINDOW 39 0 0 Left 2
SYMATTR InstName V2
SYMATTR Value 15
SYMBOL voltage -448 224 R0
WINDOW 123 0 0 Left 2
WINDOW 39 0 0 Left 2
SYMATTR InstName V3
SYMATTR Value -15
SYMBOL res 432 16 R90
WINDOW 0 0 56 VBottom 2
WINDOW 3 32 56 VTop 2
SYMATTR InstName R12
SYMATTR Value 100
SYMBOL cap 576 -80 R90
WINDOW 0 0 32 VBottom 2
WINDOW 3 32 32 VTop 2
SYMATTR InstName C3
SYMATTR Value .01µ
TEXT 376 216 Right 2 ;1.25V
TEXT -304 368 Left 2 !.step param X 300 400 20
TEXT 440 376 Left 2 !.tran 10m startup
TEXT 88 -280 Bottom 2 ;LTC6081 - Precision Dual CMOS Rail-to-Rail Input/Output Amplifiers\nLT1790 - µPower Low Dropout Reference\nSingle Supply Strain Gauge Amplifier
TEXT -536 424 Left 2 ;Note:\n  If the simulation model is not found please update with the "Sync Release" command from the "Tools" menu.\n  It remains the customer's responsibility to verify proper and reliable operation in the actual application.\n  Component substitution and printed circuit board layout may significantly affect circuit performance or reliability.\n  Contact your local sales representative for assistance. This circuit is distributed to customers only for use with LTC parts.\n  Copyright © 2015 Linear Technology Inc. All rights reserved.
