Version 4
SHEET 1 1244 692
WIRE 368 32 -672 32
WIRE -672 96 -672 32
WIRE -624 96 -672 96
WIRE 112 96 -400 96
WIRE 368 96 368 32
WIRE 368 96 336 96
WIRE 400 96 368 96
WIRE -624 176 -656 176
WIRE -336 176 -336 160
WIRE -336 176 -400 176
WIRE 112 176 80 176
WIRE 416 176 336 176
WIRE 544 176 416 176
WIRE 672 176 544 176
WIRE 768 176 768 160
WIRE 768 176 672 176
WIRE -336 192 -336 176
WIRE 416 192 416 176
WIRE 672 192 672 176
WIRE 768 192 768 176
WIRE -784 256 -912 256
WIRE -736 256 -784 256
WIRE -624 256 -656 256
WIRE -368 256 -400 256
WIRE -80 256 -192 256
WIRE -16 256 -80 256
WIRE 112 256 64 256
WIRE 384 256 336 256
WIRE -912 272 -912 256
WIRE -192 272 -192 256
WIRE -80 272 -80 256
WIRE 544 272 544 256
WIRE -784 288 -784 256
WIRE -368 288 -368 256
WIRE -336 288 -336 272
WIRE -336 288 -368 288
WIRE 384 288 384 256
WIRE 416 288 416 272
WIRE 416 288 384 288
WIRE 496 288 416 288
WIRE 672 288 672 256
WIRE 768 288 768 272
WIRE -336 304 -336 288
WIRE 416 304 416 288
WIRE -192 368 -192 352
WIRE -80 368 -80 352
WIRE 496 368 496 288
WIRE 544 368 544 336
WIRE 544 368 496 368
WIRE -912 384 -912 352
WIRE -784 384 -784 368
WIRE -336 400 -336 384
WIRE 416 400 416 384
FLAG 400 96 SHUTTER
FLAG 672 288 0
FLAG 416 400 0
FLAG -80 368 0
FLAG -192 368 0
FLAG 80 176 0
FLAG 768 288 0
FLAG -336 400 0
FLAG -656 176 0
FLAG 768 160 V+
FLAG -336 160 V+
FLAG -784 384 0
FLAG -912 384 0
SYMBOL SpecialFunctions\\LTC6991 224 176 R0
SYMATTR InstName U1
SYMBOL res 400 176 R0
SYMATTR InstName R1
SYMATTR Value 332K
SYMBOL res 400 288 R0
SYMATTR InstName R2
SYMATTR Value 130K
SYMBOL res 80 240 R90
WINDOW 0 0 56 VBottom 0
WINDOW 3 32 56 VTop 0
SYMATTR InstName R3
SYMATTR Value 95.3K
SYMATTR SpiceLine tol=1 pwr=0.1
SYMBOL voltage 768 176 R0
WINDOW 123 0 0 Left 0
WINDOW 39 0 0 Left 0
SYMATTR InstName V1
SYMATTR Value 5
SYMBOL res -96 256 R0
SYMATTR InstName R4
SYMATTR Value 2Meg
SYMBOL res -208 256 R0
SYMATTR InstName R5
SYMATTR Value .5Meg
SYMBOL res -640 240 R90
WINDOW 0 0 56 VBottom 0
WINDOW 3 32 56 VTop 0
SYMATTR InstName R6
SYMATTR Value 47.5K
SYMATTR SpiceLine tol=1 pwr=0.1
SYMBOL cap 656 192 R0
SYMATTR InstName C1
SYMATTR Value 1µ
SYMBOL SpecialFunctions\\LTC6994-1 -512 176 R0
SYMATTR InstName U2
SYMBOL res -352 176 R0
SYMATTR InstName R7
SYMATTR Value 1Meg
SYMBOL res -352 288 R0
SYMATTR InstName R8
SYMATTR Value 681K
SYMBOL res -800 272 R0
SYMATTR InstName R9
SYMATTR Value 3Meg
SYMBOL res -928 256 R0
SYMATTR InstName R10
SYMATTR Value .5Meg
SYMBOL res 528 160 R0
SYMATTR InstName R11
SYMATTR Value 1Meg
SYMBOL jumper 624 304 R90
SYMATTR InstName J1
TEXT 568 440 Left 0 !.tran 200 startup
TEXT -696 416 Left 0 ;Note:\n  If the simulation model is not found please update with the "Sync Release" command from the "Tools" menu.\n  It remains the customer's responsibility to verify proper and reliable operation in the actual application.\n  Component substitution and printed circuit board layout may significantly affect circuit performance or reliability.\n  Contact your local sales representative for assistance. This circuit is distributed to customers only for use with LTC parts.\n  Copyright © 2010 Linear Technology Inc. All rights reserved.
TEXT -128 16 Bottom 0 ;LTC6992-1: TimerBlox; Resettable, Low Frequency Oscillator\n8 Second to 8.5 Minute Low Frequency Clock (Intervalometer for Time-Lapse Photography)\nAdjustable Aperture Time from 1/4sec to 4sec
TEXT -688 128 Right 0 ;Aperture Adjustment, R10\n0 ohm for 0.25sec\n1Meg ohm for 4sec
TEXT 48 136 Right 0 ;Shutter Rate Adjustment, R5\n0 ohm for 8sec\n1Meg ohm for 64sec
TEXT 608 336 Left 0 ;Close Jumper for\n1min to 8min\nSlow Shutter Range
