Version 4
SHEET 1 1876 1392
WIRE 288 -48 208 -48
WIRE 384 -48 288 -48
WIRE 464 -48 384 -48
WIRE 544 -48 464 -48
WIRE 288 -32 288 -48
WIRE 384 -32 384 -48
WIRE 544 -32 544 -48
WIRE 288 64 288 32
WIRE 384 64 384 32
WIRE 544 64 544 48
WIRE 208 96 208 -48
WIRE 64 128 -80 128
WIRE 400 128 352 128
WIRE -80 176 -80 128
WIRE 64 176 64 128
WIRE 96 176 64 176
WIRE 96 240 64 240
WIRE 400 288 352 288
WIRE -80 304 -80 256
WIRE 64 304 64 240
WIRE 64 304 -80 304
WIRE 160 352 160 336
WIRE 208 352 208 336
WIRE 256 368 256 336
WIRE 496 368 256 368
WIRE 464 400 464 -48
WIRE 464 400 208 400
WIRE 208 432 208 400
WIRE -64 464 -240 464
WIRE 64 464 -16 464
WIRE 400 464 352 464
WIRE -240 512 -240 464
WIRE -64 512 -64 464
WIRE -16 512 -16 464
WIRE 64 512 64 464
WIRE 96 512 64 512
WIRE 96 576 64 576
WIRE 400 624 352 624
WIRE -240 640 -240 592
WIRE -64 640 -64 592
WIRE -64 640 -240 640
WIRE -16 640 -16 592
WIRE 64 640 64 576
WIRE 64 640 -16 640
WIRE -240 672 -240 640
WIRE 160 688 160 672
WIRE 208 688 208 672
WIRE 256 704 256 672
WIRE 496 704 496 368
WIRE 496 704 256 704
WIRE 464 752 464 400
WIRE 464 752 208 752
WIRE 208 784 208 752
WIRE -16 816 -160 816
WIRE 64 816 -16 816
WIRE 400 816 352 816
WIRE -160 864 -160 816
WIRE -16 864 -16 816
WIRE 64 864 64 816
WIRE 96 864 64 864
WIRE 96 928 64 928
WIRE 400 976 352 976
WIRE -160 992 -160 944
WIRE -16 992 -16 944
WIRE -16 992 -160 992
WIRE 64 992 64 928
WIRE 64 992 -16 992
WIRE 160 1040 160 1024
WIRE 208 1040 208 1024
WIRE 256 1056 256 1024
WIRE 496 1056 496 704
WIRE 496 1056 256 1056
WIRE 496 1072 496 1056
WIRE 496 1168 496 1152
FLAG 208 352 0
FLAG 160 352 0
FLAG 544 64 0
FLAG 384 64 0
FLAG 288 64 0
FLAG 496 1168 0
FLAG 208 688 0
FLAG 160 688 0
FLAG 208 1040 0
FLAG 160 1040 0
FLAG -240 672 0
SYMBOL Opamps\\LTC6400-20 224 208 R0
SYMATTR InstName U1
SYMBOL voltage -80 160 R0
WINDOW 123 37 58 Left 2
WINDOW 39 18 95 Left 2
SYMATTR Value2 AC 1 0
SYMATTR SpiceLine Rser=50
SYMATTR InstName VS1
SYMATTR Value ""
SYMBOL voltage 544 -48 R0
SYMATTR InstName V+
SYMATTR Value 3
SYMBOL cap 272 -32 R0
SYMATTR InstName CB1
SYMATTR Value 1000p
SYMBOL cap 368 -32 R0
SYMATTR InstName CB2
SYMATTR Value 0.1µ
SYMBOL voltage 496 1056 R0
SYMATTR InstName VOCM
SYMATTR Value 1.25
SYMBOL Opamps\\LTC6400-20 224 544 R0
SYMATTR InstName U2
SYMBOL Opamps\\LTC6400-20 224 896 R0
SYMATTR InstName U3
SYMBOL res -32 848 R0
SYMATTR InstName R1
SYMATTR Value 68.1
SYMBOL ind2 -80 496 R0
WINDOW 0 12 35 Right 2
WINDOW 3 3 80 Right 2
SYMATTR InstName L1
SYMATTR Value 1m
SYMATTR Type ind
SYMBOL ind2 0 496 M0
WINDOW 0 14 32 Right 2
WINDOW 3 9 81 Right 2
SYMATTR InstName L2
SYMATTR Value 4m
SYMATTR Type ind
SYMBOL voltage -240 496 R0
WINDOW 123 37 58 Left 2
WINDOW 39 18 95 Left 2
SYMATTR Value2 AC 1 0
SYMATTR SpiceLine Rser=50
SYMATTR InstName VS2
SYMATTR Value ""
SYMBOL voltage -160 848 R0
WINDOW 123 37 58 Left 2
WINDOW 39 18 95 Left 2
SYMATTR Value2 AC 1 0
SYMATTR SpiceLine Rser=50
SYMATTR InstName VS3
SYMATTR Value ""
TEXT 608 896 Left 2 !.ac dec 100 100K 1G
TEXT -48 792 Bottom 2 ;Differential Resistor Match
TEXT -40 648 Top 2 !K1 L1 L2 1
TEXT -40 448 Bottom 2 ;1:4 Transformer\n Match
TEXT -80 120 Bottom 2 ;No Impedance Match
TEXT -504 1176 Left 2 ;Note:\n  If the simulation model is not found please update with the "Sync Release" command from the "Tools" menu.\n  It remains the customer's responsibility to verify proper and reliable operation in the actual application.\n  Component substitution and printed circuit board layout may significantly affect circuit performance or reliability.\n  Contact your local sales representative for assistance. This circuit is distributed to customers only for use with LTC parts.\n  Copyright © 2012 Linear Technology Inc. All rights reserved.
TEXT 160 -64 Bottom 2 ;LT6400-20 - 1.8 GHz Low Noise, Low Distortion Differential ADC Driver for 300 MHz IF \nDifferential Impedance Matching for Fully-Differential Amplifiers\nSimulation demonstrates a variety of matching methods for the LTC6400\nThe matching methods are also applicable to other fully-differential drivers\nMore matching information is available in AN123, the LTC6400-20 datasheet, and the LTC6403 datasheet
TEXT -288 512 Right 2 ;The resistance at the\nsecondary appears as\na 50 ohm differential\nload from the primary
TEXT -216 880 Right 2 ;The differential input\n resistance is 68.1 in\n parallel with 200
TEXT -128 208 Right 2 ;The differential\nload is 200 ohms
RECTANGLE Normal 48 688 -128 448 2
