Version 4
SHEET 1 2392 680
WIRE 800 -800 656 -800
WIRE 1504 -800 800 -800
WIRE 1584 -800 1504 -800
WIRE 656 -784 656 -800
WIRE 800 -784 800 -800
WIRE 1504 -784 1504 -800
WIRE 656 -688 656 -704
WIRE 800 -688 800 -704
WIRE 1280 -688 800 -688
WIRE 1504 -688 1504 -704
WIRE 1504 -688 1472 -688
WIRE 1504 -640 1504 -688
WIRE 1504 -640 1472 -640
WIRE 800 -608 800 -688
WIRE 1280 -592 1216 -592
WIRE 1504 -592 1472 -592
WIRE 1584 -592 1584 -800
WIRE 1584 -592 1504 -592
WIRE 1504 -576 1504 -592
WIRE 800 -496 800 -528
WIRE 1504 -496 1504 -512
WIRE 1504 -496 1472 -496
WIRE 1664 -432 1472 -432
WIRE 1664 -400 1664 -432
WIRE 1216 -384 1216 -592
WIRE 1312 -384 1216 -384
WIRE 1520 -384 1312 -384
WIRE 1616 -384 1520 -384
WIRE 1312 -368 1312 -384
WIRE 1520 -368 1520 -384
WIRE 1216 -256 1216 -384
WIRE 1664 -256 1664 -304
WIRE 1696 -256 1664 -256
WIRE 1312 -240 1312 -304
WIRE 1312 -240 1264 -240
WIRE 1392 -240 1312 -240
WIRE 1520 -240 1520 -304
WIRE 1520 -240 1456 -240
WIRE 1584 -240 1584 -592
WIRE 1584 -240 1520 -240
WIRE 1312 -224 1312 -240
WIRE 1664 -224 1664 -256
WIRE 1216 -128 1216 -160
WIRE 1312 -128 1312 -144
WIRE 1664 -128 1664 -144
FLAG 800 -496 0
FLAG 656 -688 0
FLAG 1216 -128 0
FLAG 1664 -128 0
FLAG 1312 -128 0
FLAG 656 -800 IN
FLAG 1696 -256 OUT
SYMBOL res 1648 -240 R0
SYMATTR InstName R1
SYMATTR Value 4.99K
SYMBOL pmos 1616 -304 M180
WINDOW 3 52 29 Left 2
WINDOW 0 56 63 Left 2
SYMATTR Value IRF9640
SYMATTR InstName Q1
SYMBOL zener 1392 -256 M90
WINDOW 0 -4 32 VBottom 2
WINDOW 3 36 32 VTop 2
SYMATTR InstName D1
SYMATTR Value 1N5369B
SYMATTR Description Diode
SYMATTR Type diode
SYMBOL res 1296 -240 R0
SYMATTR InstName R2
SYMATTR Value 2Meg
SYMBOL voltage 656 -800 R0
WINDOW 123 24 138 Left 2
WINDOW 39 24 117 Left 2
SYMATTR Value 250V
SYMATTR InstName V1
SYMBOL load2 800 -608 R0
WINDOW 123 25 112 Left 2
WINDOW 39 25 140 Left 2
SYMATTR Value2 (.1m 0 .2m 10 .3m 10 .4m 0)
SYMATTR SpiceLine ENDREPEAT
SYMATTR Value PWL REPEAT FOR 7
SYMATTR InstName Iload
SYMBOL res 784 -800 R0
SYMATTR InstName R3
SYMATTR Value 2m
SYMBOL Opamps\\LTC6102 1376 -576 R0
SYMATTR InstName U1
SYMBOL res 1488 -800 R0
SYMATTR InstName R5
SYMATTR Value 100
SYMBOL pmos 1264 -160 R180
WINDOW 3 54 23 Left 2
WINDOW 0 57 61 Left 2
SYMATTR Value IRF9640
SYMATTR InstName Q2
SYMBOL diode 1296 -304 M180
WINDOW 0 28 60 Left 2
WINDOW 3 27 5 Left 2
SYMATTR InstName D2
SYMATTR Value MMSD4148
SYMBOL cap 1488 -576 R0
SYMATTR InstName C1
SYMATTR Value .1µ
SYMBOL cap 1504 -304 M180
WINDOW 0 24 56 Left 2
WINDOW 3 24 8 Left 2
SYMATTR InstName C2
SYMATTR Value 1µ
TEXT 1760 -128 Left 2 !.tran 3m
TEXT 1160 -864 Center 2 ;LTC6102 - Precision Zero Drift Current Sense Amplifier\nSimple 200V Current Monitor
TEXT 536 -120 Left 2 ;Note:\n  If the simulation model is not found please update with the "Sync Release" command from the "Tools" menu.\n  It remains the customer's responsibility to verify proper and reliable operation in the actual application.\n  Component substitution and printed circuit board layout may significantly affect circuit performance or reliability\n  Contact your local sales representative for assistance. This circuit is distributed to customers only for use with LTC parts\n  Copyright © 2014 Linear Technology Inc. All rights reserved.
TEXT 912 -336 Center 2 ;DANGER!! \nHIGH VOLTAGE!!
