Version 4
SHEET 1 3744 1012
WIRE 0 -160 -416 -160
WIRE 896 -160 0 -160
WIRE -416 -144 -416 -160
WIRE 976 -96 944 -96
WIRE 1136 -96 1040 -96
WIRE -416 -48 -416 -64
WIRE -64 -32 -160 -32
WIRE 0 -32 0 -160
WIRE 0 -32 -64 -32
WIRE 112 -32 0 -32
WIRE 208 -32 112 -32
WIRE 944 -32 944 -96
WIRE 944 -32 768 -32
WIRE 1040 -32 944 -32
WIRE 1136 -32 1136 -96
WIRE 1136 -32 1120 -32
WIRE -272 -16 -656 -16
WIRE -160 -16 -160 -32
WIRE -64 -16 -64 -32
WIRE 112 -16 112 -32
WIRE 208 -16 208 -32
WIRE -656 0 -656 -16
WIRE -272 0 -272 -16
WIRE 1328 0 1328 -32
WIRE 496 16 496 0
WIRE 896 16 896 -160
WIRE 1600 16 1600 0
WIRE 1136 64 1136 -32
WIRE 1136 64 1088 64
WIRE -160 80 -160 64
WIRE -64 80 -64 48
WIRE -64 80 -160 80
WIRE 112 80 112 64
WIRE 208 80 208 48
WIRE 208 80 112 80
WIRE -272 96 -272 80
WIRE 1136 96 1136 64
WIRE 1232 96 1136 96
WIRE 1328 96 1328 64
WIRE 1328 96 1312 96
WIRE 1376 96 1328 96
WIRE 1504 96 1456 96
WIRE 1600 96 1600 80
WIRE 1600 96 1584 96
WIRE 1648 96 1600 96
WIRE 1840 96 1728 96
WIRE 2224 96 1840 96
WIRE -656 112 -656 80
WIRE -160 112 -160 80
WIRE 496 112 496 80
WIRE 496 112 -160 112
WIRE 544 112 496 112
WIRE 768 112 768 -32
WIRE 768 112 624 112
WIRE 784 112 768 112
WIRE 1840 112 1840 96
WIRE -160 128 -160 112
WIRE 1328 128 1328 96
WIRE 784 160 672 160
WIRE 1840 192 1840 176
WIRE 112 208 112 80
WIRE 496 208 112 208
WIRE 544 208 496 208
WIRE 768 208 624 208
WIRE 784 208 768 208
WIRE -272 224 -656 224
WIRE -160 224 -160 208
WIRE 112 224 112 208
WIRE 496 224 496 208
WIRE 1232 224 1136 224
WIRE 1328 224 1328 192
WIRE 1328 224 1312 224
WIRE 1376 224 1328 224
WIRE 1504 224 1456 224
WIRE 1600 224 1584 224
WIRE 1648 224 1600 224
WIRE 1840 224 1728 224
WIRE 2224 224 1840 224
WIRE -656 240 -656 224
WIRE -272 240 -272 224
WIRE 672 240 672 160
WIRE 1600 240 1600 224
WIRE 1840 240 1840 224
WIRE 1136 256 1136 224
WIRE 1136 256 1088 256
WIRE 1328 256 1328 224
WIRE 1664 272 1664 144
WIRE 1712 272 1712 144
WIRE 496 304 496 288
WIRE 1664 304 1664 272
WIRE 112 320 112 304
WIRE 896 320 896 304
WIRE 1600 320 1600 304
WIRE 1840 320 1840 304
WIRE -272 336 -272 320
WIRE 672 336 672 320
WIRE 1712 336 1712 272
WIRE -656 352 -656 320
WIRE 768 352 768 208
WIRE 944 352 768 352
WIRE 1040 352 944 352
WIRE 1136 352 1136 256
WIRE 1136 352 1120 352
WIRE 1328 352 1328 320
WIRE 944 416 944 352
WIRE 976 416 944 416
WIRE 1136 416 1136 352
WIRE 1136 416 1040 416
WIRE 1712 432 1712 416
FLAG 112 320 0
FLAG -416 -48 0
FLAG -656 112 0
FLAG -656 352 0
FLAG 496 304 0
FLAG 496 0 0
FLAG 1328 -32 0
FLAG 1328 352 0
FLAG 1840 192 0
FLAG 1840 320 0
FLAG 1600 320 0
FLAG 1600 0 0
FLAG 1664 304 0
FLAG 2224 96 ADC+
FLAG 2224 224 ADC-
FLAG 672 336 0
FLAG 1712 432 0
FLAG 896 320 0
FLAG -272 -16 RF
FLAG -272 224 LO
FLAG -272 336 0
FLAG -272 96 0
FLAG -160 224 0
SYMBOL voltage -656 -16 R0
WINDOW 123 24 132 Left 2
WINDOW 39 24 114 Left 2
SYMATTR Value SINE(0 0.141 900Meg)
SYMATTR InstName VRF
SYMBOL res -176 -32 R0
SYMATTR InstName R1
SYMATTR Value 65
SYMBOL voltage -416 -160 R0
SYMATTR InstName V+
SYMATTR Value 5
SYMBOL voltage -656 224 R0
WINDOW 123 24 132 Left 2
WINDOW 39 24 114 Left 2
SYMATTR Value SINE(0 1 890Meg)
SYMATTR InstName VLO
SYMBOL cap -80 -16 R0
SYMATTR InstName C1
SYMATTR Value 5p
SYMBOL res -288 -16 R0
SYMATTR InstName RRF
SYMATTR Value 50
SYMBOL res -288 336 M180
WINDOW 0 36 76 Left 2
WINDOW 3 36 40 Left 2
SYMATTR InstName RLO
SYMATTR Value 50
SYMBOL res 1136 -48 R90
WINDOW 0 0 56 VBottom 2
WINDOW 3 32 56 VTop 2
SYMATTR InstName R2
SYMATTR Value 324
SYMBOL res 1136 336 R90
WINDOW 0 0 56 VBottom 2
WINDOW 3 32 56 VTop 2
SYMATTR InstName R3
SYMATTR Value 324
SYMBOL cap 1040 -112 R90
WINDOW 0 0 32 VBottom 2
WINDOW 3 32 32 VTop 2
SYMATTR InstName C2
SYMATTR Value 10p
SYMBOL cap 1040 400 R90
WINDOW 0 0 32 VBottom 2
WINDOW 3 32 32 VTop 2
SYMATTR InstName C3
SYMATTR Value 10p
SYMBOL res 96 -32 R0
SYMATTR InstName R4
SYMATTR Value 65
SYMBOL cap 192 -16 R0
SYMATTR InstName C4
SYMATTR Value 5p
SYMBOL ind 528 128 R270
WINDOW 0 32 56 VTop 2
WINDOW 3 5 56 VBottom 2
SYMATTR InstName L1
SYMATTR Value 15n
SYMBOL ind 528 224 R270
WINDOW 0 32 56 VTop 2
WINDOW 3 5 56 VBottom 2
SYMATTR InstName L2
SYMATTR Value 15n
SYMBOL cap 480 224 R0
SYMATTR InstName C5
SYMATTR Value 4.7p
SYMBOL cap 480 80 M180
WINDOW 0 24 64 Left 2
WINDOW 3 24 8 Left 2
SYMATTR InstName C6
SYMATTR Value 4.7p
SYMBOL res 1328 80 R90
WINDOW 0 0 56 VBottom 2
WINDOW 3 32 56 VTop 2
SYMATTR InstName R5
SYMATTR Value 49.9
SYMBOL res 1328 208 R90
WINDOW 0 0 56 VBottom 2
WINDOW 3 32 56 VTop 2
SYMATTR InstName R6
SYMATTR Value 49.9
SYMBOL cap 1312 128 R0
SYMATTR InstName C7
SYMATTR Value 4.7p
SYMBOL cap 1312 0 R0
SYMATTR InstName C8
SYMATTR Value 4.7p
SYMBOL cap 1312 320 M180
WINDOW 0 24 64 Left 2
WINDOW 3 24 8 Left 2
SYMATTR InstName C9
SYMATTR Value 4.7p
SYMBOL res 1472 80 R90
WINDOW 0 0 56 VBottom 2
WINDOW 3 32 56 VTop 2
SYMATTR InstName R7
SYMATTR Value 10
SYMBOL res 1472 208 R90
WINDOW 0 0 56 VBottom 2
WINDOW 3 32 56 VTop 2
SYMATTR InstName R8
SYMATTR Value 10
SYMBOL sw 1632 224 R270
WINDOW 0 18 89 VRight 2
WINDOW 3 -19 92 VRight 2
SYMATTR InstName S1
SYMATTR Value S
SYMBOL sw 1632 96 R270
WINDOW 0 20 92 VRight 2
WINDOW 3 -24 89 VRight 2
SYMATTR InstName S2
SYMATTR Value S
SYMBOL cap 1824 112 R0
SYMATTR InstName C12
SYMATTR Value 4p
SYMBOL cap 1824 240 R0
SYMATTR InstName C13
SYMATTR Value 4p
SYMBOL res 1600 80 R90
WINDOW 0 0 56 VBottom 2
WINDOW 3 32 56 VTop 2
SYMATTR InstName R9
SYMATTR Value 15
SYMBOL res 1600 208 R90
WINDOW 0 0 56 VBottom 2
WINDOW 3 32 56 VTop 2
SYMATTR InstName R10
SYMATTR Value 15
SYMBOL cap 1584 240 R0
SYMATTR InstName C11
SYMATTR Value 1p
SYMBOL cap 1584 80 M180
WINDOW 0 24 56 Left 2
WINDOW 3 24 8 Left 2
SYMATTR InstName C10
SYMATTR Value 1p
SYMBOL voltage 1712 320 R0
WINDOW 3 30 86 Left 2
WINDOW 123 24 132 Left 2
WINDOW 39 24 114 Left 2
SYMATTR Value PULSE(0 1 10n 200p 200p 6.25n 12.5n)
SYMATTR InstName VADC
SYMBOL voltage 672 224 R0
SYMATTR InstName V1
SYMATTR Value 1.25
SYMBOL Opamps\\LTC6405 912 160 R0
SYMATTR InstName U2
SYMBOL bi -160 128 R0
WINDOW 3 39 40 Left 2
WINDOW 123 24 73 Left 2
SYMATTR Value I=.0169
SYMATTR Value2 +0.021*(V(rf)*V(lo))
SYMATTR InstName B1
SYMBOL bi 112 304 M180
WINDOW 0 24 80 Left 2
WINDOW 3 39 38 Left 2
WINDOW 123 24 3 Left 2
SYMATTR InstName B2
SYMATTR Value I=-.0169
SYMATTR Value2 +0.021*(V(RF)*V(LO))
TEXT 1776 552 Left 2 !.tran 210n
TEXT 152 -64 Bottom 2 ;LT5575 Direct Down \nConversion Mixer
TEXT -608 352 Left 2 ;890MHz LO
TEXT 1752 368 Left 2 ;80MHz Sampling Clock
TEXT 1784 -16 Center 2 ;LTC2249 14-bit ADC
TEXT -512 104 Top 2 ;900MHz RF\n-7dBm Input Power
TEXT 504 -168 Bottom 2 ;No voltage here because this is\nthe "virtual ground" for the LTC6405
TEXT 1248 -128 Bottom 2 ;2Vpp to drive the ADC
TEXT 728 416 Top 2 ;Normally, would tie\nVocm to the VCM\nof the ADC
TEXT 1232 480 Top 2 ;A simple RC filter to provide noise filtering\nand some isolation between ADC glitching\nand the op Amp.  For more stringent\n applications, more complex filters may be necessary
TEXT 1808 -48 Bottom 2 ;Sample and parasitic capacitor/resistor values for model\nare taken directly from the LTC2249 datasheet
TEXT -608 504 Left 2 ;Note:\n  If the simulation model is not found please update with the "Sync Release" command from the "Tools" menu.\n  It remains the customer's responsibility to verify proper and reliable operation in the actual application.\n  Component substitution and printed circuit board layout may significantly affect circuit performance or reliability.\n  Contact your local sales representative for assistance. This circuit is distributed to customers only for use with LTC parts.\n  Copyright © 2012 Linear Technology Inc. All rights reserved.
TEXT -48 272 Center 2 ;A simplified model\nof the LT5575
TEXT 856 -240 Bottom 2 ;LT6405 - 2.7GHz, 5V, Low Noise, Rail-to-Rail Input Differential Amplifier/Driver\nFully Differential ADC Driver with Simplified Mixer and ADC Models\nThis simulation demonstrates an application using a fully differential amplifier coupled with\nsimplified models of the LT5575, Direct Down Conversion Mixer, and the LTC2249\nMany non-idealities of the ADC are not modeled, such as quantization effects and clock feedthrough
TEXT 1728 24 Left 2 !.model S SW(Ron=0.1 Roff=10Meg\n+ Von=0.95 Voff=0.05)
LINE Normal 448 80 504 -168 2
LINE Normal 1200 64 1248 -128 2
LINE Normal 728 416 704 336 2
LINE Normal 1280 288 1232 472 2
RECTANGLE Normal 2176 464 1480 -48 2
RECTANGLE Normal -336 368 400 -64 2
CIRCLE Normal 1216 256 1168 64 2
CIRCLE Normal 464 240 416 80 2
