Version 4
SHEET 1 1244 680
WIRE 368 -48 48 -48
WIRE 48 -16 48 -48
WIRE 48 96 48 64
WIRE 112 96 48 96
WIRE 368 96 368 -48
WIRE 368 96 336 96
WIRE 400 96 368 96
WIRE 48 176 48 160
WIRE 48 176 16 176
WIRE 112 176 48 176
WIRE 384 176 336 176
WIRE 528 176 384 176
WIRE 656 176 528 176
WIRE 752 176 656 176
WIRE 384 192 384 176
WIRE 528 192 528 176
WIRE 656 192 656 176
WIRE 752 192 752 176
WIRE -48 256 -192 256
WIRE 16 256 -48 256
WIRE 112 256 96 256
WIRE 352 256 336 256
WIRE -192 272 -192 256
WIRE -48 272 -48 256
WIRE 352 288 352 256
WIRE 384 288 384 272
WIRE 384 288 352 288
WIRE 480 288 384 288
WIRE 528 288 528 272
WIRE 656 288 656 256
WIRE 752 288 752 272
WIRE 384 304 384 288
WIRE -192 368 -192 352
WIRE -48 368 -48 352
WIRE 480 384 480 288
WIRE 528 384 528 352
WIRE 528 384 480 384
WIRE 384 400 384 384
FLAG 400 96 SHUTTER
FLAG 656 288 0
FLAG 384 400 0
FLAG -48 368 0
FLAG -192 368 0
FLAG 16 176 0
FLAG 752 288 0
SYMBOL SpecialFunctions\\LTC6991 224 176 R0
SYMATTR InstName U1
SYMBOL res 368 176 R0
SYMATTR InstName R1
SYMATTR Value 332K
SYMBOL res 368 288 R0
SYMATTR InstName R2
SYMATTR Value 130K
SYMBOL res 112 240 R90
WINDOW 0 0 56 VBottom 0
WINDOW 3 32 56 VTop 0
SYMATTR InstName R3
SYMATTR Value 95.3K
SYMBOL voltage 752 176 R0
WINDOW 123 0 0 Left 0
WINDOW 39 0 0 Left 0
SYMATTR InstName V1
SYMATTR Value 5
SYMBOL res -64 256 R0
SYMATTR InstName R4
SYMATTR Value 2Meg
SYMBOL res -208 256 R0
SYMATTR InstName R5
SYMATTR Value 24.5K
SYMBOL cap 32 96 R0
WINDOW 0 34 18 Left 0
WINDOW 3 39 54 Left 0
SYMATTR InstName C1
SYMATTR Value 33µ
SYMBOL res 32 -32 R0
SYMATTR InstName R6
SYMATTR Value 100K
SYMBOL cap 640 192 R0
SYMATTR InstName C2
SYMATTR Value 1µ
SYMBOL res 512 176 R0
SYMATTR InstName R7
SYMATTR Value 1Meg
SYMBOL jumper 608 320 R90
SYMATTR InstName J1
TEXT 624 424 Left 0 !.tran 100 startup
TEXT -296 440 Left 0 ;Note:\n  If the simulation model is not found please update with the "Sync Release" command from the "Tools" menu.\n  It remains the customer's responsibility to verify proper and reliable operation in the actual application.\n  Component substitution and printed circuit board layout may significantly affect circuit performance or reliability.\n  Contact your local sales representative for assistance. This circuit is distributed to customers only for use with LTC parts.\n  Copyright © 2010 Linear Technology Inc. All rights reserved.
TEXT 240 -64 Bottom 0 ;LTC6991: TimerBlox; Resettable, Low Frequency Oscillator\n8 Second to 8.5 Minute Low Frequency Clock (Intervalometer for Time-Lapse Photography)
TEXT 168 408 Right 0 ;Variable R5 set to 24.5k for 10sec
TEXT 688 368 Center 0 ;Close for "slow range"
