Version 4
SHEET 1 1236 728
WIRE 384 -304 368 -304
WIRE 496 -304 464 -304
WIRE 528 -304 496 -304
WIRE 640 -304 608 -304
WIRE -192 -240 -304 -240
WIRE 64 -240 -192 -240
WIRE 320 -240 64 -240
WIRE 560 -240 320 -240
WIRE -304 -208 -304 -240
WIRE -192 -208 -192 -240
WIRE 288 -192 0 -192
WIRE 560 -192 560 -240
WIRE 496 -176 496 -304
WIRE 528 -176 496 -176
WIRE 640 -160 640 -304
WIRE 640 -160 592 -160
WIRE 656 -160 640 -160
WIRE 64 -144 64 -240
WIRE 528 -144 496 -144
WIRE 0 -128 0 -192
WIRE 32 -128 0 -128
WIRE -304 -112 -304 -128
WIRE -192 -112 -192 -144
WIRE 192 -112 96 -112
WIRE 288 -112 288 -192
WIRE 288 -112 256 -112
WIRE 336 -112 288 -112
WIRE 448 -112 416 -112
WIRE 496 -112 496 -144
WIRE 496 -112 448 -112
WIRE 560 -112 560 -128
WIRE -112 -96 -128 -96
WIRE 0 -96 -32 -96
WIRE 32 -96 0 -96
WIRE 448 -96 448 -112
WIRE 0 -64 0 -96
WIRE 64 -64 64 -80
WIRE 448 -16 448 -32
WIRE 192 0 176 0
WIRE 288 0 272 0
WIRE 496 16 496 -112
WIRE 0 32 0 16
WIRE -336 96 -352 96
WIRE -128 96 -128 -96
WIRE -128 96 -256 96
WIRE 48 96 -128 96
WIRE 288 96 288 0
WIRE 288 96 272 96
WIRE 448 96 288 96
WIRE 496 128 496 112
WIRE 48 176 32 176
WIRE 320 176 320 -240
WIRE 320 176 272 176
WIRE 432 176 320 176
WIRE 320 192 320 176
WIRE 432 192 432 176
WIRE -48 256 -64 256
WIRE 48 256 32 256
WIRE 288 256 272 256
WIRE 432 272 432 256
WIRE 288 288 288 256
WIRE 320 288 320 272
WIRE 320 288 288 288
WIRE 320 304 320 288
WIRE 320 400 320 384
FLAG 0 32 0
FLAG -352 96 0
FLAG 64 -64 0
FLAG 560 -112 0
FLAG 368 -304 0
FLAG 448 -16 0
FLAG -304 -112 0
FLAG -192 -112 0
FLAG 496 128 0
FLAG 176 0 0
FLAG 32 176 0
FLAG -64 256 0
FLAG 320 400 0
FLAG 432 272 0
FLAG 656 -160 OUT
SYMBOL Opamps\\LT1490 64 -176 R0
SYMATTR InstName U1
SYMBOL Opamps\\LT1490 560 -224 R0
SYMATTR InstName U2
SYMBOL voltage -240 96 M270
WINDOW 0 32 56 VTop 0
WINDOW 3 -32 56 VBottom 0
WINDOW 123 -74 56 VBottom 0
WINDOW 39 -53 56 VBottom 0
SYMATTR InstName V1
SYMATTR Value PULSE(0 5 0.5u 0.5u 0.5u 100u 1000u 5)
SYMBOL res -16 -112 R90
WINDOW 0 0 56 VBottom 0
WINDOW 3 32 56 VTop 0
SYMATTR InstName R1
SYMATTR Value 10K
SYMBOL res -16 -80 R0
SYMATTR InstName R2
SYMATTR Value 20K
SYMBOL diode 192 -96 R270
WINDOW 0 32 32 VTop 0
WINDOW 3 0 32 VBottom 0
SYMATTR InstName D1
SYMATTR Value 1N4148
SYMBOL res 432 -128 R90
WINDOW 0 0 56 VBottom 0
WINDOW 3 32 56 VTop 0
SYMATTR InstName R3
SYMATTR Value 2K
SYMBOL cap 432 -96 R0
WINDOW 0 22 9 Left 0
SYMATTR InstName C1
SYMATTR Value 1µ
SYMBOL res 512 -288 R270
WINDOW 0 32 56 VTop 0
WINDOW 3 0 56 VBottom 0
SYMATTR InstName R4
SYMATTR Value 10K
SYMBOL voltage -304 -224 M0
WINDOW 0 -21 11 Right 0
WINDOW 3 -32 107 Right 0
WINDOW 123 0 0 Left 0
WINDOW 39 0 0 Left 0
SYMATTR InstName V2
SYMATTR Value 5
SYMBOL cap -208 -208 R0
SYMATTR InstName C2
SYMATTR Value 0.1µ
SYMBOL res 368 -288 R270
WINDOW 0 32 56 VTop 0
WINDOW 3 0 56 VBottom 0
SYMATTR InstName R5
SYMATTR Value 4.98K
SYMBOL nmos 448 16 R0
SYMATTR InstName Q1
SYMATTR Value IPP052N06L3
SYMBOL res 176 16 R270
WINDOW 0 32 56 VTop 0
WINDOW 3 0 56 VBottom 0
SYMATTR InstName R6
SYMATTR Value 100K
SYMBOL res 48 240 R90
WINDOW 0 0 56 VBottom 0
WINDOW 3 32 56 VTop 0
SYMATTR InstName R7
SYMATTR Value 147K
SYMBOL res 304 176 R0
SYMATTR InstName R8
SYMATTR Value 280K
SYMBOL res 304 288 R0
SYMATTR InstName R9
SYMATTR Value 1Meg
SYMBOL cap 416 192 R0
SYMATTR InstName C3
SYMATTR Value 0.1µ
SYMBOL SpecialFunctions\\LTC6993-2 160 176 R0
SYMATTR InstName U3
TEXT 536 336 Left 0 !.tran 10ms
TEXT -456 312 Left 0 ;Notes:\n  U2: Converts pulse frequency-to-voltage\n  U3: Generated a staircase output\n  U1: Retriggers and reset the pulse staircase\n \n  If the simulation model is not found please update with the "Sync Release" command from the "Tools" menu.\n  It remains the customer's responsibility to verify proper and reliable operation in the actual application.\n  Component substitution and printed circuit board layout may significantly affect circuit performance or reliability.\n  Contact your local sales representative for assistance. This circuit is distributed to customers only for use with LTC parts.\n  Copyright © 2010 Linear Technology Inc. All rights reserved.
TEXT 160 -360 Bottom 0 ;LTC6993-2 - Pulse Staircase Ramp Generator
