Version 4
SHEET 1 2124 2048
WIRE -720 -320 -1040 -320
WIRE 240 -320 -720 -320
WIRE -224 -288 -656 -288
WIRE -1040 -208 -1040 -320
WIRE -1040 -208 -1216 -208
WIRE -1008 -208 -1040 -208
WIRE -896 -208 -928 -208
WIRE -784 -208 -896 -208
WIRE -624 -208 -784 -208
WIRE -256 -208 -272 -208
WIRE -1216 -192 -1216 -208
WIRE -896 -192 -896 -208
WIRE -784 -192 -784 -208
WIRE -656 -144 -656 -288
WIRE -624 -144 -656 -144
WIRE -224 -144 -224 -288
WIRE -224 -144 -272 -144
WIRE -784 -112 -784 -128
WIRE -1216 -96 -1216 -112
WIRE -896 -96 -896 -112
WIRE -624 -80 -656 -80
WIRE -224 -80 -272 -80
WIRE -720 -16 -720 -320
WIRE -624 -16 -720 -16
WIRE -80 -16 -272 -16
WIRE -896 0 -896 -16
WIRE -720 0 -720 -16
WIRE -224 64 -224 -80
WIRE -176 64 -224 64
WIRE -80 64 -80 -16
WIRE -80 64 -112 64
WIRE -720 80 -720 64
WIRE -656 176 -656 -80
WIRE -336 176 -656 176
WIRE -224 176 -224 64
WIRE -224 176 -256 176
WIRE -192 176 -224 176
WIRE -80 176 -80 64
WIRE -80 176 -112 176
WIRE -48 176 -80 176
WIRE 272 176 176 176
WIRE -48 256 -64 256
WIRE 240 256 240 -320
WIRE 240 256 176 256
WIRE 352 256 240 256
WIRE 240 272 240 256
WIRE 352 272 352 256
WIRE -144 336 -160 336
WIRE -48 336 -64 336
WIRE 208 336 176 336
WIRE 208 368 208 336
WIRE 240 368 240 352
WIRE 240 368 208 368
WIRE 352 368 352 336
WIRE 240 384 240 368
WIRE 240 480 240 464
FLAG -1216 -96 0
FLAG -896 0 0
FLAG -784 -112 0
FLAG -720 80 0
FLAG 240 480 0
FLAG -160 336 0
FLAG 352 368 0
FLAG -64 256 0
FLAG 272 176 Out
FLAG -1216 -208 IN
FLAG -256 -208 0
SYMBOL voltage -1216 -208 R0
WINDOW 123 26 120 Left 2
WINDOW 39 24 144 Left 2
WINDOW 40 24 168 Left 2
SYMATTR Value2 150m 4.9 250m 4.5
SYMATTR SpiceLine 450m 4.9 700m 4.5
SYMATTR SpiceLine2 800m 4.6 1 4.6)
SYMATTR InstName V1
SYMATTR Value PWL(0 4.6 100m 4.6
SYMBOL res -1024 -192 R270
WINDOW 0 32 56 VTop 2
WINDOW 3 0 56 VBottom 2
SYMATTR InstName R1
SYMATTR Value 100K
SYMBOL cap -736 0 R0
SYMATTR InstName C1
SYMATTR Value .1µ
SYMBOL cap -800 -192 R0
SYMATTR InstName C2
SYMATTR Value 1n
SYMBOL res -912 -208 R0
SYMATTR InstName R2
SYMATTR Value 14.7K
SYMBOL LTC6994-1 64 256 R0
SYMATTR InstName U1
SYMBOL res -912 -112 R0
SYMATTR InstName R3
SYMATTR Value 20K
SYMBOL res 224 368 R0
SYMATTR InstName R4
SYMATTR Value 1Meg
SYMBOL res -48 352 M270
WINDOW 0 32 56 VTop 2
WINDOW 3 0 56 VBottom 2
SYMATTR InstName R5
SYMATTR Value 309K
SYMBOL cap 336 272 R0
SYMATTR InstName C3
SYMATTR Value .1µ
SYMBOL LTC1541 -448 -112 R180
SYMATTR InstName U2
SYMBOL res 224 256 R0
SYMATTR InstName R6
SYMATTR Value 523K
SYMBOL res -240 192 M270
WINDOW 0 32 56 VTop 2
WINDOW 3 0 56 VBottom 2
SYMATTR InstName R7
SYMATTR Value 49.9K
SYMBOL res -208 160 M90
WINDOW 0 0 56 VBottom 2
WINDOW 3 32 56 VTop 2
SYMATTR InstName R8
SYMATTR Value 200K
SYMBOL cap -112 48 R90
WINDOW 0 0 32 VBottom 2
WINDOW 3 32 32 VTop 2
SYMATTR InstName C4
SYMATTR Value 10p
TEXT 312 504 Left 2 !.tran 1 startup
TEXT -384 -336 Bottom 2 ;LTC1541 - µPower Op Amp, Comparator and Reference\nLTC6994-1 - TimerBlox: Delay Block/ Debouncer\nHigh Accuracy, µPower, Over-Voltage Detector with Glitch Suppressor
TEXT 264 72 Left 2 ;Out low on OV conditions\nthat lasts more than \nfalling edge delay
TEXT 64 136 Bottom 2 ;Falling Edge Delay
TEXT -200 -72 Left 2 ;Inverter
TEXT -1008 56 Top 2 ;Over-Voltage Condition\nVin (R1+R2)/(R1+R2+R3) > Vref\nVref = 1.2V ±1%, SO8 package\nR1, R2 & R3 0.1% 50ppm
TEXT -96 392 Top 2 ;The R4, R5 & R6 set the delay of the LTC6994-1.\nRefer to the LTC6994-1 data sheet.
TEXT -1120 456 Left 2 ;Note:\n  The Vsupply of LTC1541 and LTC6994-1 can be Vin or any voltage source 2.5V - 5.5V.\n  The accuracy of the circuit depends on the LTC1541 variations of the Vref, Vtrip, Vhysteresis and Vos voltages.\n  If the simulation model is not found please update with the "Sync Release" command from the "Tools" menu.\n  It remains the customer's responsibility to verify proper and reliable operation in the actual application.\n  Component substitution and printed circuit board layout may significantly affect circuit performance or reliability.\n  Contact your local sales representative for assistance. This circuit is distributed to customers only for use with LTC parts.\n  Copyright © 2015 Linear Technology Inc. All rights reserved.
