Version 4
SHEET 1 880 908
WIRE -416 128 -672 128
WIRE -784 192 -800 192
WIRE -672 192 -672 128
WIRE -672 192 -704 192
WIRE -656 192 -672 192
WIRE -384 192 -432 192
WIRE -656 272 -672 272
WIRE -416 272 -416 128
WIRE -416 272 -432 272
WIRE -400 272 -416 272
WIRE -320 272 -336 272
WIRE -896 352 -1040 352
WIRE -736 352 -816 352
WIRE -656 352 -736 352
WIRE -400 352 -432 352
WIRE -1040 368 -1040 352
WIRE -736 368 -736 352
WIRE -1040 464 -1040 448
WIRE -736 464 -736 448
FLAG -672 272 0
FLAG -736 464 0
FLAG -320 272 0
FLAG -800 192 0
FLAG -1040 464 0
FLAG -384 192 OUT
FLAG -1040 352 CTRL
FLAG -400 352 0
SYMBOL voltage -688 192 R90
WINDOW 123 74 56 VTop 2
WINDOW 39 53 56 VTop 2
WINDOW 0 -32 56 VBottom 2
WINDOW 3 32 56 VTop 2
SYMATTR InstName V1
SYMATTR Value 5
SYMBOL SpecialFunctions\\LTC6990 -544 272 R0
SYMATTR InstName U1
SYMBOL res -752 352 R0
SYMATTR InstName R1
SYMATTR Value 100K
SYMBOL cap -400 288 R270
WINDOW 0 32 32 VTop 2
WINDOW 3 0 32 VBottom 2
SYMATTR InstName C1
SYMATTR Value 0.1µ
SYMBOL res -800 336 R90
WINDOW 0 -7 53 VBottom 2
WINDOW 3 54 56 VTop 2
SYMATTR InstName R2
SYMATTR Value 100K
SYMBOL voltage -1040 352 R0
WINDOW 123 24 138 Left 2
WINDOW 39 24 117 Left 2
SYMATTR Value SINE(.75 .75 250 1m)
SYMATTR InstName V2
TEXT -416 448 Left 2 !.tran 5m
TEXT -1192 520 Left 2 ;Note:\n  If the simulation model is not found please update with the "Sync Release" command from the "Tools" menu.\n  It remains the customer's responsibility to verify proper and reliable operation in the actual application.\n  Component substitution and printed circuit board layout may significantly affect circuit performance or reliability.\n  Contact your local sales representative for assistance. This circuit is distributed to customers only for use with LTC parts.\n  Copyright © 2013 Linear Technology Inc. All rights reserved.
TEXT -552 112 Bottom 2 ;LTC6990 - TimerBlox: Voltage Controlled Silicon Oscillator\nVoltage Controlled Oscillator with 16:1 Frequency Range\nControl: 0V to 1.5V     Output: 250kHz to 1MHz (Fout = 1MHz - Vctrl * 0.5MHz/V)
