Version 4
SHEET 1 2384 1104
WIRE -208 -160 -448 -160
WIRE -80 -160 -208 -160
WIRE 80 -160 -80 -160
WIRE 240 -160 80 -160
WIRE 400 -160 240 -160
WIRE 416 -160 400 -160
WIRE 512 -160 496 -160
WIRE 608 -160 512 -160
WIRE -448 -144 -448 -160
WIRE -80 -144 -80 -160
WIRE 240 -144 240 -160
WIRE 608 -144 608 -160
WIRE 560 -128 544 -128
WIRE 240 -64 240 -80
WIRE -448 -48 -448 -64
WIRE -80 -48 -80 -80
WIRE 80 0 80 -160
WIRE 112 0 80 0
WIRE 400 0 400 -160
WIRE 400 0 368 0
WIRE 608 0 608 -48
WIRE 688 0 608 0
WIRE 848 0 768 0
WIRE 896 0 848 0
WIRE 992 0 896 0
WIRE 1088 0 992 0
WIRE 896 16 896 0
WIRE 992 16 992 0
WIRE 1088 16 1088 0
WIRE 608 32 608 0
WIRE -16 96 -80 96
WIRE 112 96 48 96
WIRE 512 96 512 -160
WIRE 512 96 368 96
WIRE 608 112 608 96
WIRE 896 112 896 80
WIRE 992 112 992 80
WIRE 1088 112 1088 96
WIRE -80 192 -80 96
WIRE -64 192 -80 192
WIRE 16 192 0 192
WIRE 112 192 96 192
WIRE 544 192 544 -128
WIRE 544 192 368 192
WIRE 848 240 848 0
WIRE 848 240 736 240
WIRE 736 256 736 240
WIRE 848 256 848 240
WIRE -80 288 -80 192
WIRE -16 288 -80 288
WIRE 112 288 48 288
WIRE 400 288 368 288
WIRE 448 288 400 288
WIRE 544 288 448 288
WIRE 608 288 544 288
WIRE 544 304 544 288
WIRE 608 304 608 288
WIRE 736 352 736 320
WIRE 736 352 672 352
WIRE 848 352 848 336
WIRE 848 352 736 352
WIRE 848 368 848 352
WIRE -80 384 -80 288
WIRE 112 384 -80 384
WIRE 448 384 448 368
WIRE 448 384 368 384
WIRE 544 384 544 368
WIRE 544 384 448 384
WIRE -208 400 -208 -160
WIRE 400 400 400 288
WIRE 608 416 608 400
WIRE 848 464 848 448
WIRE -80 480 -80 384
WIRE 192 480 192 448
WIRE 192 480 -80 480
WIRE 288 480 288 448
WIRE 288 480 192 480
WIRE 400 480 400 464
WIRE 400 480 288 480
WIRE -80 496 -80 480
WIRE -208 512 -208 464
WIRE -128 512 -208 512
WIRE 608 512 608 496
WIRE -208 528 -208 512
WIRE -208 624 -208 608
WIRE -80 624 -80 592
FLAG -448 -48 0
FLAG 848 464 0
FLAG 1088 112 0
FLAG 992 112 0
FLAG 1088 0 OUT
FLAG 608 112 0
FLAG 896 112 0
FLAG -208 624 0
FLAG -80 624 0
FLAG 608 512 0
FLAG -448 -160 IN
FLAG -80 -48 0
SYMBOL PowerProducts\\LTC7860 240 192 R0
SYMATTR InstName U1
SYMBOL voltage -448 -160 R0
WINDOW 123 24 124 Left 2
WINDOW 39 24 152 Left 2
SYMATTR Value PWL(0 0 +20u 32 +2m 32 +1u 100 +2m 16)
SYMATTR InstName V1
SYMBOL cap 224 -144 R0
SYMATTR InstName C1
SYMATTR Value .47µ
SYMBOL pmos 560 -48 M180
WINDOW 0 61 66 Left 2
WINDOW 3 55 32 Left 2
SYMATTR InstName Q1
SYMATTR Value Si7489DP
SYMBOL res 400 -144 R270
WINDOW 0 32 56 VTop 2
WINDOW 3 0 56 VBottom 2
SYMATTR InstName R1
SYMATTR Value 6m
SYMBOL cap 48 80 R90
WINDOW 0 0 32 VBottom 2
WINDOW 3 32 32 VTop 2
SYMATTR InstName C2
SYMATTR Value .022µ
SYMBOL cap 0 176 R90
WINDOW 0 0 32 VBottom 2
WINDOW 3 32 32 VTop 2
WINDOW 39 53 32 VTop 2
SYMATTR InstName C3
SYMATTR Value 3300p
SYMBOL cap 48 272 R90
WINDOW 0 0 32 VBottom 2
WINDOW 3 32 32 VTop 2
SYMATTR InstName C4
SYMATTR Value .001µ
SYMBOL res 832 240 R0
SYMATTR InstName R2
SYMATTR Value 31.6K
SYMBOL res 832 352 R0
SYMATTR InstName R3
SYMATTR Value 31.6K
SYMBOL cap 976 16 R0
SYMATTR InstName C5
SYMATTR Value 150µ
SYMATTR SpiceLine Rser=210m
SYMBOL ind 672 16 R270
WINDOW 0 32 56 VTop 2
WINDOW 3 5 56 VBottom 2
SYMATTR InstName L1
SYMATTR Value 15µ
SYMATTR SpiceLine Rser=9m
SYMBOL schottky 592 96 M180
WINDOW 0 24 64 Left 2
WINDOW 3 24 0 Left 2
SYMATTR InstName D1
SYMATTR Value MBR20100CT
SYMATTR Description Diode
SYMATTR Type diode
SYMBOL cap 720 256 R0
SYMATTR InstName C6
SYMATTR Value 1500p
SYMBOL cap 880 16 R0
WINDOW 3 37 32 Left 2
WINDOW 123 26 59 Left 2
SYMATTR Value 12µ
SYMATTR Value2 x3
SYMATTR InstName C7
SYMATTR SpiceLine Rser=2m
SYMBOL pmos -128 592 M180
WINDOW 0 57 63 Left 2
WINDOW 3 55 30 Left 2
SYMATTR InstName Q2
SYMATTR Value Si7113DN
SYMBOL zener -224 464 M180
WINDOW 0 24 64 Left 2
WINDOW 3 24 0 Left 2
SYMATTR InstName D2
SYMATTR Value TDZ12B
SYMBOL res -224 512 R0
SYMATTR InstName R4
SYMATTR Value 100K
SYMBOL res 432 272 R0
SYMATTR InstName R5
SYMATTR Value 10K
SYMBOL res 592 400 R0
SYMATTR InstName R6
SYMATTR Value 205K
SYMBOL npn 672 304 M0
WINDOW 0 -1 26 Right 2
WINDOW 3 4 71 Right 2
SYMATTR InstName Q3
SYMATTR Value 2SC4102
SYMBOL cap 528 304 R0
WINDOW 3 24 51 Left 2
SYMATTR Value 47p
SYMATTR InstName C8
SYMBOL diode 384 400 R0
WINDOW 0 38 21 Left 2
WINDOW 3 37 54 Left 2
SYMATTR InstName D3
SYMATTR Value 1N4148
SYMBOL cap -96 -144 R0
SYMATTR InstName C9
SYMATTR Value 15µ
SYMBOL res 112 176 R90
WINDOW 0 0 56 VBottom 2
WINDOW 3 32 56 VTop 2
SYMATTR InstName R7
SYMATTR Value 10K
SYMBOL res 1072 0 R0
SYMATTR InstName Rload
SYMATTR Value 3.4
TEXT 880 552 Left 2 !.tran 7m
TEXT 256 -208 Bottom 2 ;LTC7860 - High Efficiency Switching Surge Stopper\nHigh Voltage, High Efficiency Switching Surge Stopper with Timer\nInput: 7V to 100V     Output: 7V to 34Vmax @ 10A     Fsw = 350kHz
TEXT -312 648 Left 2 ;Notes:\nSS & TMR capacitors have been reduced to speed up simulation time. Typical values should be .1uF & 22uF, respectively.\nIf the simulation model is not found please update with the "Sync Release" command from the "Tools" menu.\nIt remains the customer's responsibility to verify proper and reliable operation in the actual application.\nComponent substitution and printed circuit board layout may significantly affect circuit performance or reliability.\nContact your local sales representative for assistance. This circuit is distributed to customers only for use with LTC parts.\nCopyright © 2017 Linear Technology Inc. All rights reserved.
