Version 4
SHEET 1 2632 980
WIRE -272 -16 -384 -16
WIRE -176 -16 -272 -16
WIRE -80 -16 -176 -16
WIRE 48 -16 -80 -16
WIRE 464 -16 432 -16
WIRE 576 -16 544 -16
WIRE 640 -16 576 -16
WIRE 736 -16 640 -16
WIRE -384 0 -384 -16
WIRE -272 0 -272 -16
WIRE -176 0 -176 -16
WIRE 640 0 640 -16
WIRE 736 0 736 -16
WIRE -80 64 -80 -16
WIRE -64 64 -80 64
WIRE 48 64 16 64
WIRE 576 64 576 -16
WIRE 576 64 432 64
WIRE -384 96 -384 80
WIRE -272 96 -272 64
WIRE -176 96 -176 64
WIRE 640 96 640 64
WIRE 736 96 736 80
WIRE 48 144 32 144
WIRE 576 144 576 64
WIRE 576 144 432 144
WIRE -48 224 -64 224
WIRE 48 224 32 224
WIRE 496 224 432 224
WIRE -48 304 -64 304
WIRE 48 304 32 304
WIRE 496 304 496 224
WIRE 496 304 432 304
WIRE 496 320 496 304
WIRE 496 400 496 384
WIRE 48 464 32 464
WIRE 448 464 432 464
WIRE 112 576 112 560
WIRE 240 576 240 560
FLAG -384 96 0
FLAG -384 -16 IN
FLAG -176 96 0
FLAG -64 304 0
FLAG 736 -16 OUT
FLAG 32 144 0
FLAG 32 464 0
FLAG 736 96 0
FLAG 640 96 0
FLAG 112 576 0
FLAG 240 576 0
FLAG 448 464 0
FLAG 496 400 0
FLAG -64 224 0
FLAG -272 96 0
SYMBOL voltage -384 -16 R0
SYMATTR InstName V1
SYMATTR Value 12V
SYMBOL cap -192 0 R0
SYMATTR InstName C2
SYMATTR Value 4.7µ
SYMBOL ind 448 0 R270
WINDOW 0 32 56 VTop 2
WINDOW 3 5 56 VBottom 2
SYMATTR InstName L1
SYMATTR Value 15µ
SYMATTR SpiceLine Rser=40m
SYMBOL cap 624 0 R0
SYMATTR Value 100µ
SYMATTR SpiceLine Rser=15m
SYMATTR InstName C3
SYMBOL res 720 -16 R0
SYMATTR InstName Rload1
SYMATTR Value 2.5
SYMBOL LTC7103 240 224 R0
SYMATTR InstName U2
SYMBOL cap 480 320 R0
SYMATTR Value 1µ
SYMATTR SpiceLine Rser=20m
SYMATTR Value2 IC=0
SYMATTR InstName C4
SYMBOL res 32 48 R90
WINDOW 0 0 56 VBottom 2
WINDOW 3 32 56 VTop 2
SYMATTR InstName R1
SYMATTR Value 10Meg
SYMBOL polcap -288 0 R0
SYMATTR InstName C1
SYMATTR Value 33µ
SYMATTR SpiceLine V=100 Irms=0.2 Rser=0.4
SYMBOL res 48 208 R90
WINDOW 0 0 56 VBottom 2
WINDOW 3 32 56 VTop 2
SYMATTR InstName R2
SYMATTR Value 17.8K
SYMBOL res 48 288 R90
WINDOW 0 0 56 VBottom 2
WINDOW 3 32 56 VTop 2
SYMATTR InstName R3
SYMATTR Value 8.87K
TEXT 240 -112 Bottom 2 ;LTC7103 - 105V, 2.3A Low EMI Synchronous Step-Down Regulator\n High Efficiency, High Voltage, Low EMI Step-Down Regulator\nInput: 5V to 100V     Output: 5V @ 2.3A
TEXT -432 592 Left 2 ;Note:\n  The BOOST capacitor, input filter and output filter are not included in this simulation.\n  If the simulation model is not found please update with the "Sync Release" command from the "Tools" menu.\n  It remains the customer's responsibility to verify proper and reliable operation in the actual application.\n  Component substitution and printed circuit board layout may significantly affect circuit performance or reliability\n  Contact your local sales representative for assistance. This circuit is distributed to customers only for use with LTC parts\n  Copyright © 2017 Linear Technology Inc. All rights reserved.
TEXT 488 544 Left 2 !.tran 1.5m startup
