Version 4
SHEET 1 1264 992
WIRE -32 -176 -144 -176
WIRE 112 -176 -32 -176
WIRE 224 -176 112 -176
WIRE 256 -176 224 -176
WIRE 336 -176 320 -176
WIRE 352 -176 336 -176
WIRE 448 -176 432 -176
WIRE -32 -160 -32 -176
WIRE 112 -160 112 -176
WIRE 224 -160 224 -176
WIRE -224 -80 -320 -80
WIRE -96 -80 -224 -80
WIRE -32 -80 -32 -96
WIRE -32 -80 -96 -80
WIRE 112 -80 112 -96
WIRE 112 -80 -32 -80
WIRE -320 -64 -320 -80
WIRE -224 -64 -224 -80
WIRE -96 -64 -96 -80
WIRE 224 -64 224 -96
WIRE 224 -64 0 -64
WIRE 112 -48 112 -80
WIRE 224 -48 224 -64
WIRE 336 -48 336 -176
WIRE 0 16 0 -64
WIRE 16 16 0 16
WIRE 448 16 432 16
WIRE 544 16 528 16
WIRE -320 32 -320 16
WIRE -224 32 -224 0
WIRE -96 32 -96 0
WIRE -32 112 -32 -80
WIRE 16 112 -32 112
WIRE 464 112 432 112
WIRE 464 128 464 112
WIRE -240 208 -256 208
WIRE -96 208 -160 208
WIRE 16 208 -16 208
WIRE 464 208 464 192
WIRE 464 208 432 208
WIRE 512 208 464 208
WIRE 624 208 624 192
WIRE 624 208 592 208
WIRE -144 304 -144 -176
WIRE -96 304 -144 304
WIRE 16 304 -16 304
WIRE 624 304 624 288
WIRE 624 304 432 304
WIRE 16 400 0 400
WIRE 464 400 432 400
WIRE 512 400 464 400
WIRE 624 400 624 384
WIRE 624 400 512 400
WIRE 720 400 624 400
WIRE 512 416 512 400
WIRE 720 416 720 400
WIRE 624 432 624 400
WIRE -80 480 -96 480
WIRE 96 480 96 464
WIRE 96 480 0 480
WIRE 272 480 272 464
WIRE 272 480 208 480
WIRE 128 496 16 496
WIRE 176 496 176 464
WIRE 176 496 128 496
WIRE 272 496 272 480
WIRE 16 512 16 496
WIRE 128 512 128 496
WIRE 208 512 208 480
WIRE 512 512 512 480
WIRE 624 512 624 496
WIRE 720 512 720 496
WIRE -144 672 -144 304
WIRE 16 672 16 576
WIRE 16 672 -144 672
WIRE 128 672 128 656
WIRE 128 672 16 672
WIRE 208 672 208 576
WIRE 208 672 128 672
WIRE 272 672 272 576
WIRE 272 672 208 672
WIRE 352 672 352 464
WIRE 352 672 272 672
WIRE 464 672 464 400
WIRE 464 672 352 672
FLAG 0 400 0
FLAG -320 32 0
FLAG 720 400 OUT
FLAG -320 -80 IN
FLAG 624 192 0
FLAG 448 -176 0
FLAG 544 16 0
FLAG 720 512 0
FLAG 512 512 0
FLAG -256 208 0
FLAG -96 32 0
FLAG -224 32 0
FLAG -96 480 0
FLAG 624 512 0
SYMBOL res 256 480 R0
WINDOW 3 28 86 Left 2
SYMATTR Value 100K
SYMATTR InstName R1
SYMBOL cap 192 512 R0
SYMATTR InstName C1
SYMATTR Value 1n
SYMBOL res 0 288 R90
WINDOW 0 0 56 VBottom 2
WINDOW 3 32 56 VTop 2
SYMATTR InstName R2
SYMATTR Value 200K
SYMBOL VOLTAGE -320 -80 R0
WINDOW 123 24 138 Left 2
WINDOW 39 24 117 Left 2
SYMATTR Value 12
SYMATTR InstName V1
SYMBOL cap 208 -96 M180
WINDOW 0 24 56 Left 2
WINDOW 3 24 8 Left 2
SYMATTR InstName C2
SYMATTR Value 2.2µ
SYMATTR SpiceLine Rser=10m
SYMBOL ind 496 224 R270
WINDOW 0 32 56 VTop 2
WINDOW 3 5 56 VBottom 2
SYMATTR InstName L1
SYMATTR Value 5.6µ
SYMATTR SpiceLine Rser=23m
SYMBOL cap 448 128 R0
SYMATTR InstName C3
SYMATTR Value .1µ
SYMBOL cap 496 416 R0
WINDOW 123 24 64 Left 2
WINDOW 3 38 38 Left 2
SYMATTR Value2 x2
SYMATTR Value 22µ
SYMATTR InstName C4
SYMATTR SpiceLine Rser=20m
SYMBOL LTC7149 224 208 R0
SYMATTR InstName U1
SYMBOL cap -112 -64 R0
SYMATTR InstName C5
SYMATTR Value 10µ
SYMATTR SpiceLine Rser=0.005
SYMBOL polcap -240 -64 R0
SYMATTR InstName C6
SYMATTR Value 10µ
SYMATTR SpiceLine Rser=0.12
SYMBOL polcap 608 432 R0
SYMATTR InstName C7
SYMATTR Value 150µ
SYMATTR SpiceLine Rser=50m
SYMBOL res 112 496 R0
SYMATTR InstName R3
SYMATTR Value 1K
SYMBOL cap 112 592 R0
SYMATTR InstName C8
SYMATTR Value 4.7n
SYMBOL cap 0 512 R0
SYMATTR InstName C9
SYMATTR Value 100p
SYMBOL voltage -144 208 R90
WINDOW 0 -32 56 VBottom 2
WINDOW 3 32 56 VTop 2
WINDOW 123 74 56 VTop 2
WINDOW 39 53 56 VTop 2
SYMATTR InstName V2
SYMATTR Value 5
SYMBOL res -112 224 R270
WINDOW 0 32 56 VTop 2
WINDOW 3 0 56 VBottom 2
SYMATTR InstName R4
SYMATTR Value 100K
SYMBOL cap -48 -96 M180
WINDOW 0 24 56 Left 2
WINDOW 3 24 8 Left 2
SYMATTR InstName C10
SYMATTR Value 2.2µ
SYMATTR SpiceLine Rser=0.01
SYMBOL cap 96 -96 M180
WINDOW 0 24 56 Left 2
WINDOW 3 24 8 Left 2
SYMATTR InstName C11
SYMATTR Value 1µ
SYMATTR SpiceLine Rser=0.01
SYMBOL res 16 464 R90
WINDOW 0 0 56 VBottom 2
WINDOW 3 32 56 VTop 2
SYMATTR InstName R5
SYMATTR Value 20
SYMBOL res 544 0 R90
WINDOW 0 0 56 VBottom 2
WINDOW 3 32 56 VTop 2
SYMATTR InstName R6
SYMATTR Value 100
SYMBOL res 448 -192 R90
WINDOW 0 0 56 VBottom 2
WINDOW 3 32 56 VTop 2
SYMATTR InstName R7
SYMATTR Value 10
SYMBOL cap 256 -160 R270
WINDOW 3 0 32 VBottom 2
WINDOW 0 32 32 VTop 2
SYMATTR Value 1µ
SYMATTR InstName C12
SYMBOL res 608 192 R0
SYMATTR InstName R8
SYMATTR Value 1Meg
SYMBOL res 608 288 R0
SYMATTR InstName R9
SYMATTR Value 137K
SYMBOL res 704 400 R0
SYMATTR InstName Rload
SYMATTR Value 2
TEXT 520 624 Left 2 !.tran 1.5m startup uic
TEXT 200 -232 Bottom 2 ;LTC7149 - 60V, 4A Synchronous Step-Down Regulator for Inverting Outputs\nInverting Buck Regulator\nInput: 3.4V to 55V     Output: -5V @ 2.5A
TEXT -496 680 Left 2 ;Notes:\n  If the simulation model is not found please update with the "Sync Release" command from the "Tools" menu.\n  It remains the customer's responsibility to verify proper and reliable operation in the actual application.\n  Component substitution and printed circuit board layout may significantly affect circuit performance or reliability.\n  Contact your local sales representative for assistance. This circuit is distributed to customers only for use with LTC parts.\n  Copyright © 2016 Linear Technology Inc. All rights reserved.
