Version 4
SHEET 1 1544 892
WIRE -112 64 -208 64
WIRE -32 64 -112 64
WIRE 144 64 -32 64
WIRE -208 80 -208 64
WIRE -112 80 -112 64
WIRE 144 96 144 64
WIRE -32 160 -32 64
WIRE 0 160 -32 160
WIRE 320 160 288 160
WIRE 384 160 320 160
WIRE 512 160 464 160
WIRE 560 160 512 160
WIRE 672 160 560 160
WIRE -208 176 -208 160
WIRE -112 176 -112 144
WIRE 320 176 320 160
WIRE 560 176 560 160
WIRE 672 176 672 160
WIRE 0 256 -16 256
WIRE 320 256 320 240
WIRE 320 256 288 256
WIRE 560 272 560 240
WIRE 672 272 672 256
WIRE 0 352 -48 352
WIRE 512 352 512 160
WIRE 512 352 288 352
WIRE 0 448 -16 448
WIRE 304 448 288 448
WIRE -48 544 -48 352
WIRE 0 544 -48 544
WIRE 304 544 288 544
WIRE 144 624 144 608
FLAG -208 176 0
FLAG 672 272 0
FLAG -208 64 IN
FLAG 672 160 OUT
FLAG -112 176 0
FLAG 560 272 0
FLAG 144 624 0
FLAG -16 256 0
FLAG -16 448 0
SYMBOL voltage -208 64 R0
WINDOW 123 0 0 Left 2
WINDOW 39 0 0 Left 2
SYMATTR InstName V1
SYMATTR Value 48
SYMBOL ind 368 176 R270
WINDOW 0 32 56 VTop 2
WINDOW 3 5 56 VBottom 2
SYMATTR InstName L1
SYMATTR Value 150µ
SYMATTR SpiceLine Rser=285m
SYMBOL res 656 160 R0
SYMATTR InstName Rload
SYMATTR Value 8.25
SYMBOL cap -128 80 R0
SYMATTR InstName C1
SYMATTR Value 1µ
SYMBOL cap 544 176 R0
WINDOW 123 22 59 Left 2
WINDOW 3 38 32 Left 2
SYMATTR Value2 x2
SYMATTR Value 100µ
SYMATTR InstName C2
SYMATTR SpiceLine Rser=2m
SYMBOL PowerProducts\\LTC7138 144 352 R0
SYMATTR InstName U1
SYMBOL diode 336 240 R180
WINDOW 0 -28 59 Left 2
WINDOW 3 -108 -2 Left 2
SYMATTR InstName D1
SYMATTR Value MURS120
SYMATTR Description Schottky diode
SYMATTR Type schottky
TEXT 504 544 Left 2 !.tran 5m startup
TEXT 256 32 Bottom 2 ;LTC7138 - High Efficiency, 140V, 400mA Step-Down Regulator\nHigh Input Voltage Buck Regulator\nInput: 4V to 140V     Output: 3.3V @ 400mA
TEXT -400 632 Left 2 ;Note:\n  If the simulation model is not found please update with the "Sync Release" command from the "Tools" menu.\n  It remains the customer's responsibility to verify proper and reliable operation in the actual application.\n  Component substitution and printed circuit board layout may significantly affect circuit performance or reliability\n  Contact your local sales representative for assistance. This circuit is distributed to customers only for use with LTC parts\n  Copyright © 2016 Linear Technology Inc. All rights reserved.
