Version 4
SHEET 1 1076 732
WIRE -160 -128 -256 -128
WIRE -64 -128 -160 -128
WIRE 128 -128 -64 -128
WIRE -256 -112 -256 -128
WIRE -160 -112 -160 -128
WIRE -64 -112 -64 -128
WIRE 128 -64 128 -128
WIRE 224 -64 224 -80
WIRE 320 -64 320 -80
WIRE -256 -16 -256 -32
WIRE -160 -16 -160 -48
WIRE -64 -16 -64 -32
WIRE 16 -16 -64 -16
WIRE 480 -16 432 -16
WIRE 544 -16 480 -16
WIRE 640 -16 544 -16
WIRE 752 -16 640 -16
WIRE 752 0 752 -16
WIRE 544 16 544 -16
WIRE 640 16 640 -16
WIRE 16 80 0 80
WIRE 448 80 432 80
WIRE 544 112 544 80
WIRE 640 112 640 80
WIRE 752 112 752 80
WIRE -80 176 -96 176
WIRE 16 176 0 176
WIRE 448 176 448 80
WIRE 448 176 432 176
WIRE 16 272 0 272
WIRE 480 272 480 -16
WIRE 480 272 432 272
WIRE 480 288 480 272
WIRE -80 368 -96 368
WIRE 16 368 -16 368
WIRE 448 368 432 368
WIRE -80 464 -96 464
WIRE 16 464 -16 464
WIRE 480 464 480 352
WIRE 480 464 432 464
WIRE 512 464 480 464
WIRE 608 464 592 464
WIRE 160 528 160 512
WIRE 288 528 288 512
FLAG -256 -16 0
FLAG -96 176 0
FLAG 160 528 0
FLAG 288 528 0
FLAG -96 464 0
FLAG -96 368 0
FLAG 0 272 0
FLAG 608 464 0
FLAG 752 112 0
FLAG 752 -16 OUT
FLAG -256 -128 IN
FLAG -160 -16 0
FLAG 544 112 0
FLAG 640 112 0
FLAG 448 368 0
SYMBOL PowerProducts\\LTM4627 224 224 R0
SYMATTR InstName U1
SYMBOL voltage -256 -128 R0
WINDOW 123 0 0 Left 0
WINDOW 39 0 0 Left 0
SYMATTR InstName V1
SYMATTR Value 12
SYMBOL res -80 -128 R0
SYMATTR InstName R1
SYMATTR Value 10K
SYMBOL res 16 160 R90
WINDOW 0 0 56 VBottom 0
WINDOW 3 32 56 VTop 0
SYMATTR InstName R2
SYMATTR Value 100K
SYMBOL cap -16 448 R90
WINDOW 0 -3 30 VBottom 0
WINDOW 3 32 32 VTop 0
SYMATTR InstName C1
SYMATTR Value .001µ
SYMBOL cap -16 352 R90
WINDOW 0 0 32 VBottom 0
WINDOW 3 32 32 VTop 0
SYMATTR InstName C2
SYMATTR Value 150p
SYMBOL res 496 480 R270
WINDOW 0 32 56 VTop 0
WINDOW 3 0 56 VBottom 0
SYMATTR InstName R3
SYMATTR Value 121K
SYMBOL cap -176 -112 R0
WINDOW 3 38 35 Left 0
WINDOW 39 28 62 Left 0
SYMATTR Value 22µ
SYMATTR SpiceLine x3
SYMATTR InstName C3
SYMBOL cap 464 288 R0
SYMATTR InstName C4
SYMATTR Value 82p
SYMBOL cap 528 16 R0
SYMATTR InstName C5
SYMATTR Value 100µ
SYMATTR SpiceLine Rser=10m
SYMBOL cap 624 16 R0
WINDOW 40 31 63 Left 0
WINDOW 3 39 34 Left 0
SYMATTR SpiceLine2 x2
SYMATTR Value 470µ
SYMATTR InstName C6
SYMATTR SpiceLine Rser=6m
SYMBOL res 736 -16 R0
SYMATTR InstName Rload
SYMATTR Value .06
TEXT 592 392 Left 0 !.tran .7m startup
TEXT -408 536 Left 0 ;Note:\n  If the simulation model is not found please update with the "Sync Release" command from the "Tools" menu.\n  It remains the customer's responsibility to verify proper and reliable operation in the actual application.\n  Component substitution and printed circuit board layout may significantly affect circuit performance or reliability\n  Contact your local sales representative for assistance. This circuit is distributed to customers only for use with LTC parts\n  Copyright © 2011 Linear Technology Inc. All rights reserved.
TEXT 248 -136 Bottom 0 ;LTM4627 - 15A DC/DC µModule Regulator\nInput: 4.5V to 20V     Output: .9V @ 15A, Fswitch = 400kHz
