Version 4
SHEET 1 2224 1476
WIRE -752 -2064 -832 -2064
WIRE -688 -2064 -752 -2064
WIRE -592 -2064 -688 -2064
WIRE -144 -2064 -592 -2064
WIRE -832 -2048 -832 -2064
WIRE -688 -2048 -688 -2064
WIRE -592 -2048 -592 -2064
WIRE -336 -2016 -352 -2016
WIRE -240 -2016 -256 -2016
WIRE 448 -2000 -48 -2000
WIRE -240 -1968 -240 -2016
WIRE -144 -1968 -144 -2064
WIRE -48 -1968 -48 -2000
WIRE -832 -1952 -832 -1968
WIRE -688 -1952 -688 -1984
WIRE -592 -1952 -592 -1984
WIRE -336 -1808 -720 -1808
WIRE 400 -1808 240 -1808
WIRE -336 -1712 -352 -1712
WIRE 256 -1712 240 -1712
WIRE -336 -1616 -688 -1616
WIRE 560 -1616 240 -1616
WIRE 272 -1520 240 -1520
WIRE -336 -1424 -608 -1424
WIRE 304 -1424 240 -1424
WIRE -336 -1328 -512 -1328
WIRE 336 -1328 240 -1328
WIRE -336 -1232 -432 -1232
WIRE 368 -1232 240 -1232
WIRE -336 -1136 -352 -1136
WIRE 512 -1136 240 -1136
WIRE -240 -1056 -240 -1072
WIRE -144 -1056 -144 -1072
WIRE 144 -1056 144 -1072
WIRE 272 -1056 272 -1520
WIRE 272 -1056 144 -1056
WIRE -688 -1024 -688 -1616
WIRE 48 -1024 48 -1072
WIRE 48 -1024 -688 -1024
WIRE 560 -1024 560 -1616
WIRE 560 -1024 48 -1024
WIRE 608 -1024 560 -1024
WIRE 720 -1024 608 -1024
WIRE 832 -1024 720 -1024
WIRE 960 -1024 832 -1024
WIRE 608 -1008 608 -1024
WIRE 720 -1008 720 -1024
WIRE 832 -1008 832 -1024
WIRE 960 -1008 960 -1024
WIRE 608 -928 608 -944
WIRE 720 -928 720 -944
WIRE 960 -912 960 -928
WIRE -48 -896 -48 -1072
WIRE 832 -896 832 -928
WIRE 832 -896 -48 -896
WIRE 832 -880 832 -896
WIRE -432 -864 -432 -1232
WIRE 368 -864 368 -1232
WIRE 368 -864 -432 -864
WIRE -512 -832 -512 -1328
WIRE 336 -832 336 -1328
WIRE 336 -832 -512 -832
WIRE -608 -800 -608 -1424
WIRE 304 -800 304 -1424
WIRE 304 -800 -608 -800
WIRE -720 -768 -720 -1808
WIRE 400 -768 400 -1808
WIRE 400 -768 -720 -768
WIRE -752 -736 -752 -2064
WIRE -144 -736 -752 -736
WIRE 448 -736 448 -2000
WIRE 448 -736 -48 -736
WIRE -352 -688 -384 -688
WIRE -240 -688 -272 -688
WIRE 448 -656 448 -736
WIRE -240 -640 -240 -688
WIRE -144 -640 -144 -736
WIRE -48 -640 -48 -736
WIRE -720 -480 -720 -768
WIRE -336 -480 -720 -480
WIRE 400 -480 400 -768
WIRE 400 -480 240 -480
WIRE 448 -480 448 -576
WIRE 448 -480 400 -480
WIRE -336 -384 -352 -384
WIRE 256 -384 240 -384
WIRE -688 -288 -688 -1024
WIRE -336 -288 -688 -288
WIRE 560 -288 560 -1024
WIRE 560 -288 240 -288
WIRE -688 -224 -688 -288
WIRE -688 -96 -688 -160
WIRE -608 -96 -608 -800
WIRE -608 -96 -688 -96
WIRE -336 -96 -608 -96
WIRE 304 -96 304 -800
WIRE 304 -96 240 -96
WIRE -608 -80 -608 -96
WIRE -512 0 -512 -832
WIRE -336 0 -512 0
WIRE 336 0 336 -832
WIRE 336 0 240 0
WIRE -608 16 -608 0
WIRE -512 16 -512 0
WIRE -512 96 -512 80
WIRE -432 96 -432 -864
WIRE -336 96 -432 96
WIRE 368 96 368 -864
WIRE 368 96 240 96
WIRE -432 112 -432 96
WIRE -432 192 -432 176
WIRE -336 192 -368 192
WIRE 256 192 240 192
WIRE -240 272 -240 256
WIRE -144 272 -144 256
WIRE -368 304 -368 192
WIRE 512 304 512 -1136
WIRE 512 304 -368 304
FLAG -832 -1952 0
FLAG 960 -912 0
FLAG -832 -2064 IN
FLAG 832 -1024 OUT
FLAG -432 192 0
FLAG -688 -1952 0
FLAG 832 -880 0
FLAG -608 16 0
FLAG -352 -2016 0
FLAG -240 272 0
FLAG -384 -688 0
FLAG -144 -1056 0
FLAG -240 -1056 0
FLAG -352 -1136 0
FLAG -144 272 0
FLAG 608 -928 0
FLAG 720 -928 0
FLAG -592 -1952 0
FLAG -512 96 0
SYMBOL VOLTAGE -832 -2064 R0
WINDOW 3 27 94 Left 2
WINDOW 123 0 0 Left 2
WINDOW 39 0 0 Left 2
SYMATTR Value 12
SYMATTR InstName V1
SYMBOL load2 960 -1008 R0
WINDOW 123 0 0 Left 2
WINDOW 39 0 0 Left 2
SYMATTR Value PULSE(0 25 400u 1u 1u .1m .4m)
SYMATTR InstName Iload
SYMBOL cap 704 -1008 R0
WINDOW 3 38 33 Left 2
WINDOW 40 28 58 Left 2
SYMATTR Value 100µ
SYMATTR SpiceLine2 x6
SYMATTR InstName C1
SYMATTR SpiceLine Rser=2m Lser=0.8n
SYMBOL cap -448 112 R0
SYMATTR InstName C2
SYMATTR Value .001µ
SYMBOL cap -704 -2048 R0
WINDOW 40 24 60 Left 2
WINDOW 3 38 34 Left 2
SYMATTR SpiceLine2 x8
SYMATTR Value 22µ
SYMATTR InstName C3
SYMATTR SpiceLine V=35 Rser=5m
SYMBOL res -624 -96 R0
SYMATTR InstName R1
SYMATTR Value 90.9K
SYMBOL res -240 -2032 R90
WINDOW 0 0 56 VBottom 2
WINDOW 3 32 56 VTop 2
SYMATTR InstName R2
SYMATTR Value 121K
SYMBOL polcap 592 -1008 R0
WINDOW 3 37 35 Left 2
WINDOW 40 24 62 Left 2
SYMATTR Value 220µ
SYMATTR SpiceLine2 x16
SYMATTR InstName C4
SYMATTR Description Capacitor
SYMATTR Type cap
SYMATTR SpiceLine V=4 Irms=2.8 Rser=2m Lser=1.8n
SYMBOL res 432 -672 R0
WINDOW 3 26 84 Left 2
SYMATTR Value 10K
SYMATTR InstName R3
SYMBOL res -256 -704 R90
WINDOW 0 0 56 VBottom 2
WINDOW 3 32 56 VTop 2
SYMATTR InstName R4
SYMATTR Value 121K
SYMBOL res 816 -1024 R0
SYMATTR InstName Rload
SYMATTR Value 200m
SYMBOL PowerProducts\\LTM4650-1 -48 -1520 R0
SYMATTR InstName U1
SYMBOL PowerProducts\\LTM4650-1 -48 -192 R0
SYMATTR InstName U2
SYMBOL cap -608 -2048 R0
SYMATTR Value 150µ
SYMATTR InstName C5
SYMATTR SpiceLine V=35 Rser=5m
SYMBOL cap -528 16 R0
SYMATTR Value .015µ
SYMATTR InstName C6
SYMATTR SpiceLine V=6.3 Rser=1.74k
SYMBOL cap -704 -224 R0
SYMATTR InstName C7
SYMATTR Value 330p
TEXT 560 280 Left 2 !.tran 650u startup
TEXT -656 312 Left 2 ;Note:\n  Smaller values are used for TK/SS capacitors to reduce simulation time. See datasheet for typical values.\n  If the simulation model is not found please update with the "Sync Release" command from the "Tools" menu.\n  It remains the customer's responsibility to verify proper and reliable operation in the actual application.\n  Component substitution and printed circuit board layout may significantly affect circuit performance or reliability\n  Contact your local sales representative for assistance. This circuit is distributed to customers only for use with LTC parts\n  Copyright © 2016 Linear Technology Inc. All rights reserved.
TEXT -96 -2080 Bottom 2 ;LTM4650-1 - Dual 25A or Single 50A DC/DC µModule Regulator\nHigh Efficiency 4-Phase 100A Step-Down Regulator\nInput: 4.5V to 15V     Output: 1V @ 100A
