Version 4
SHEET 1 1196 764
WIRE 208 -96 176 -96
WIRE 320 -96 288 -96
WIRE 176 -48 176 -96
WIRE 320 -48 320 -96
WIRE -240 -32 -352 -32
WIRE -144 -32 -240 -32
WIRE -64 -32 -144 -32
WIRE 16 -32 -64 -32
WIRE -352 -16 -352 -32
WIRE -240 -16 -240 -32
WIRE -144 -16 -144 -32
WIRE -64 -16 -64 -32
WIRE 16 16 16 -32
WIRE 64 16 16 16
WIRE 576 16 448 16
WIRE 704 16 576 16
WIRE 800 16 704 16
WIRE 576 32 576 16
WIRE 704 32 704 16
WIRE 800 32 800 16
WIRE -352 80 -352 64
WIRE -240 80 -240 48
WIRE -144 80 -144 48
WIRE -64 80 -64 64
WIRE 32 80 -64 80
WIRE 64 80 32 80
WIRE 464 80 448 80
WIRE -64 96 -64 80
WIRE 576 128 576 96
WIRE 704 128 704 96
WIRE 800 128 800 112
WIRE 480 144 448 144
WIRE 512 144 480 144
WIRE 512 160 512 144
WIRE -64 176 -64 160
WIRE -32 208 -64 208
WIRE 64 208 -32 208
WIRE 480 208 480 144
WIRE 480 208 448 208
WIRE -32 240 -32 208
WIRE 32 272 32 80
WIRE 64 272 32 272
WIRE 512 272 512 240
WIRE 512 272 448 272
WIRE 512 288 512 272
WIRE -32 336 -32 320
WIRE 64 336 -32 336
WIRE 464 336 448 336
WIRE -64 368 -64 208
WIRE 464 400 448 400
WIRE 560 400 544 400
WIRE -64 464 -64 448
WIRE 64 464 -64 464
WIRE 496 464 448 464
WIRE -64 480 -64 464
WIRE 496 480 496 464
WIRE 176 560 176 528
WIRE 320 560 320 528
WIRE 496 560 496 544
WIRE -64 576 -64 560
FLAG 464 80 0
FLAG 800 128 0
FLAG 560 400 0
FLAG 512 288 0
FLAG 320 560 0
FLAG 176 560 0
FLAG -352 80 0
FLAG 496 560 0
FLAG -352 -32 IN
FLAG 800 16 OUT
FLAG -144 80 0
FLAG -240 80 0
FLAG 576 128 0
FLAG -64 176 0
FLAG 704 128 0
FLAG -64 576 0
SYMBOL ind 192 -80 R270
WINDOW 0 32 56 VTop 0
WINDOW 3 5 56 VBottom 0
SYMATTR InstName L1
SYMATTR Value 4.7µ
SYMATTR SpiceLine Rser=1m
SYMBOL res 496 144 R0
SYMATTR InstName R1
SYMATTR Value 7.5m
SYMBOL res 560 384 R90
WINDOW 0 0 56 VBottom 0
WINDOW 3 32 56 VTop 0
SYMATTR InstName R2
SYMATTR Value 7.15K
SYMBOL voltage -352 -32 R0
WINDOW 123 0 0 Left 0
WINDOW 39 0 0 Left 0
SYMATTR InstName V1
SYMATTR Value 15
SYMBOL cap 480 480 R0
SYMATTR InstName C2
SYMATTR Value .01µ
SYMBOL res -48 336 M180
WINDOW 0 36 76 Left 0
WINDOW 3 36 40 Left 0
SYMATTR InstName R3
SYMATTR Value 100K
SYMBOL res 784 16 R0
SYMATTR InstName Rload
SYMATTR Value 2.4
SYMBOL PowerProducts\\LTM4605 256 240 R0
SYMATTR InstName U1
SYMBOL cap -256 -16 R0
SYMATTR InstName C3
SYMATTR Value 100µ
SYMATTR SpiceLine Rser=35m
SYMBOL cap -160 -16 R0
SYMATTR InstName C4
SYMATTR Value 10µ
SYMATTR SpiceLine Rser=20m
SYMBOL cap 560 32 R0
WINDOW 3 38 34 Left 0
WINDOW 40 28 63 Left 0
SYMATTR Value 180µ
SYMATTR SpiceLine2 x2
SYMATTR InstName C7
SYMATTR SpiceLine Rser=32m
SYMBOL res -80 352 R0
SYMATTR InstName R4
SYMATTR Value 4.64K
SYMBOL res -80 464 R0
SYMATTR InstName R5
SYMATTR Value 1.21K
SYMBOL res -80 -32 R0
SYMATTR InstName R6
SYMATTR Value 51K
SYMBOL zener -80 160 M180
WINDOW 0 26 59 Left 0
WINDOW 3 24 0 Left 0
SYMATTR InstName D1
SYMATTR Value 1N750
SYMBOL cap 688 32 R0
WINDOW 3 41 34 Left 0
WINDOW 40 34 67 Left 0
SYMATTR Value 22µ
SYMATTR SpiceLine2 x2
SYMATTR InstName C6
SYMATTR SpiceLine Rser=5m
TEXT 584 480 Left 0 !.tran 10m startup
TEXT 256 -136 Bottom 0 ;LTM4605 - 36 VIN, 16 VOUT Buck-Boost DC/DC uModule\nInput: 15V     Output: 12V @ 5A
TEXT -312 584 Left 0 ;Note:\n  If the simulation model is not found please update with the "Sync Release" command from the "Tools" menu.\n  It remains the customer's responsibility to verify proper and reliable operation in the actual application.\n  Component substitution and printed circuit board layout may significantly affect circuit performance or reliability\n  Contact your local sales representative for assistance. This circuit is distributed to customers only for use with LTC parts\n  Copyright © 2008 Linear Technology Inc. All rights reserved.
