Version 4
SHEET 1 1988 1224
WIRE -528 -704 -640 -704
WIRE -160 -704 -528 -704
WIRE -640 -688 -640 -704
WIRE -528 -688 -528 -704
WIRE -64 -688 -432 -688
WIRE 256 -688 -64 -688
WIRE -352 -640 -368 -640
WIRE -256 -640 -272 -640
WIRE -432 -608 -432 -688
WIRE -640 -592 -640 -608
WIRE -528 -592 -528 -624
WIRE -256 -592 -256 -640
WIRE -160 -592 -160 -704
WIRE -64 -592 -64 -688
WIRE -432 -432 -432 -528
WIRE -352 -432 -432 -432
WIRE 256 -432 256 -688
WIRE 256 -432 224 -432
WIRE -352 -240 -496 -240
WIRE 528 -240 224 -240
WIRE 576 -240 528 -240
WIRE 688 -240 576 -240
WIRE 864 -240 688 -240
WIRE 576 -224 576 -240
WIRE 688 -224 688 -240
WIRE 864 -224 864 -240
WIRE 864 -224 784 -224
WIRE 864 -208 864 -224
WIRE 256 -144 224 -144
WIRE 576 -128 576 -160
WIRE 688 -128 688 -160
WIRE 864 -112 864 -128
WIRE 864 -112 816 -112
WIRE 864 -96 864 -112
WIRE -352 -48 -464 -48
WIRE 416 -48 224 -48
WIRE -352 48 -432 48
WIRE 384 48 224 48
WIRE -352 144 -400 144
WIRE 288 144 224 144
WIRE -352 240 -368 240
WIRE -256 320 -256 304
WIRE -160 320 -160 304
WIRE 128 336 128 304
WIRE 256 336 256 -144
WIRE 256 336 128 336
WIRE 32 368 32 304
WIRE 784 368 784 -224
WIRE 784 368 32 368
WIRE -64 400 -64 304
WIRE 816 400 816 -112
WIRE 816 400 -64 400
WIRE -400 432 -400 144
WIRE 288 432 288 144
WIRE 288 432 -400 432
WIRE 288 448 288 432
WIRE 288 528 288 512
WIRE -432 560 -432 48
WIRE 384 560 384 48
WIRE 384 560 -432 560
WIRE -464 592 -464 -48
WIRE 416 592 416 -48
WIRE 416 592 -464 592
WIRE 416 608 416 592
WIRE 416 704 416 688
WIRE -496 736 -496 -240
WIRE 528 736 528 -240
WIRE 528 736 -496 736
FLAG -640 -592 0
FLAG -640 -704 IN
FLAG 688 -128 0
FLAG 864 -240 OUT
FLAG -256 320 0
FLAG -528 -592 0
FLAG 864 -96 0
FLAG 288 528 0
FLAG 416 704 0
FLAG -368 -640 0
FLAG 576 -128 0
FLAG -160 320 0
FLAG -368 240 0
SYMBOL VOLTAGE -640 -704 R0
WINDOW 3 27 94 Left 2
WINDOW 123 0 0 Left 2
WINDOW 39 0 0 Left 2
SYMATTR Value 12
SYMATTR InstName V1
SYMBOL cap -544 -688 R0
WINDOW 40 26 60 Left 2
WINDOW 3 38 32 Left 2
SYMATTR SpiceLine2 x4
SYMATTR Value 22µ
SYMATTR InstName C1
SYMATTR SpiceLine V=35 Rser=5m
SYMBOL cap 272 448 R0
SYMATTR InstName C2
SYMATTR Value .001µ
SYMBOL res 400 592 R0
SYMATTR InstName R1
SYMATTR Value 90.9K
SYMBOL res -256 -656 R90
WINDOW 0 0 56 VBottom 2
WINDOW 3 32 56 VTop 2
SYMATTR InstName R2
SYMATTR Value 121K
SYMBOL res -448 -624 R0
SYMATTR InstName R3
SYMATTR Value 10K
SYMBOL LTM4630 -64 -144 R0
SYMATTR InstName U1
SYMBOL current 864 -208 R0
WINDOW 123 0 0 Left 2
WINDOW 39 0 0 Left 2
SYMATTR InstName I1
SYMATTR Value PULSE(0 12.5 .5m 1u 1u .1m .2m)
SYMBOL polcap 560 -224 R0
WINDOW 3 37 35 Left 2
WINDOW 40 24 62 Left 2
SYMATTR Value 470µ
SYMATTR SpiceLine2 x4
SYMATTR InstName C3
SYMATTR Description Capacitor
SYMATTR Type cap
SYMATTR SpiceLine V=2.5 Irms=2.8 Rser=6m Lser=1n
SYMBOL cap 672 -224 R0
WINDOW 3 38 33 Left 2
WINDOW 40 28 58 Left 2
SYMATTR Value 100µ
SYMATTR SpiceLine2 x8
SYMATTR InstName C4
SYMATTR SpiceLine Rser=2m Lser=0.8n
TEXT 592 712 Left 2 !.tran .85m startup
TEXT -496 768 Left 2 ;Note:\n  Smaller values are used for TK/SS capacitors to reduce simulation time. See datasheet for typical values.\n  If the simulation model is not found please update with the "Sync Release" command from the "Tools" menu.\n  It remains the customer's responsibility to verify proper and reliable operation in the actual application.\n  Component substitution and printed circuit board layout may significantly affect circuit performance or reliability\n  Contact your local sales representative for assistance. This circuit is distributed to customers only for use with LTC parts\n  Copyright © 2015 Linear Technology Inc. All rights reserved.
TEXT 256 -704 Bottom 2 ;LTM4650 - Dual 25A or Single 50A DC/DC µModule Regulator\nHigh Efficiency Single 50A Step-Down Regulator\nInput : 4.5V to 15V     Outputs: 1V @ 50A
