Version 4
SHEET 1 2228 756
WIRE -192 -16 -304 -16
WIRE -96 -16 -192 -16
WIRE 128 -16 -96 -16
WIRE -304 0 -304 -16
WIRE -96 0 -96 -16
WIRE 128 0 128 -16
WIRE 272 0 272 -16
WIRE -192 16 -192 -16
WIRE 16 48 0 48
WIRE 464 48 400 48
WIRE 560 48 464 48
WIRE 624 48 560 48
WIRE 720 48 624 48
WIRE 816 48 720 48
WIRE 816 64 816 48
WIRE 624 80 624 48
WIRE 720 80 720 48
WIRE -304 96 -304 80
WIRE -192 96 -192 80
WIRE -96 112 -96 80
WIRE 16 112 -96 112
WIRE 464 112 400 112
WIRE 464 128 464 112
WIRE 624 160 624 144
WIRE 720 160 720 144
WIRE 816 160 816 144
WIRE 16 176 0 176
WIRE 416 176 400 176
WIRE 464 224 464 208
WIRE 16 240 0 240
WIRE 416 240 416 176
WIRE 416 240 400 240
WIRE 0 304 0 240
WIRE 16 304 0 304
WIRE 560 304 560 48
WIRE 560 304 400 304
WIRE -80 368 -96 368
WIRE 16 368 0 368
WIRE 416 368 400 368
WIRE 16 432 0 432
WIRE 416 432 400 432
WIRE -80 496 -96 496
WIRE 16 496 -16 496
WIRE 416 496 400 496
WIRE 128 576 128 560
WIRE 288 576 288 560
FLAG 128 576 0
FLAG 288 576 0
FLAG 464 224 0
FLAG -96 368 0
FLAG 416 368 0
FLAG 816 160 0
FLAG -304 96 0
FLAG -96 496 0
FLAG 816 48 OUT
FLAG -304 -16 IN
FLAG -192 96 0
FLAG 720 160 0
FLAG 624 160 0
SYMBOL PowerProducts\\LTM4601 208 256 R0
SYMATTR InstName U1
SYMBOL cap 448 48 R0
WINDOW 0 34 18 Left 0
WINDOW 3 35 47 Left 0
SYMATTR InstName C1
SYMATTR Value 100p
SYMBOL res 448 112 R0
SYMATTR InstName R1
SYMATTR Value 121K
SYMBOL res 16 384 M270
WINDOW 0 32 56 VTop 0
WINDOW 3 0 56 VBottom 0
SYMATTR InstName R2
SYMATTR Value 392K
SYMBOL cap 608 80 R0
SYMATTR InstName C2
SYMATTR Value 100µ
SYMATTR SpiceLine Rser=2m
SYMBOL res -112 -16 R0
SYMATTR InstName R3
SYMATTR Value 100K
SYMBOL cap -16 480 R90
WINDOW 0 0 32 VBottom 0
WINDOW 3 32 32 VTop 0
SYMATTR InstName C3
SYMATTR Value .001µ
SYMBOL voltage -304 -16 R0
WINDOW 123 0 0 Left 0
WINDOW 39 0 0 Left 0
SYMATTR InstName V1
SYMATTR Value 12
SYMBOL cap -208 16 R0
WINDOW 3 44 31 Left 0
WINDOW 39 29 57 Left 0
SYMATTR Value 10µ
SYMATTR SpiceLine x3
SYMATTR InstName C4
SYMBOL cap 704 80 R0
SYMATTR InstName C5
SYMATTR Value 470µ
SYMATTR SpiceLine Rser=10m
SYMBOL res 800 48 R0
SYMATTR InstName Rload
SYMATTR Value .075
TEXT 456 552 Left 0 !.tran 700u startup
TEXT 216 -24 Bottom 0 ;LTM4601 - 12A DC/DC µModules with PLL, Output Tracking and Margining\nInput: 4.5V to 20V     Output: .9V @ 12A, Fswitch = 850KHz
TEXT -408 584 Left 0 ;Note:\n  If the simulation model is not found please update with the "Sync Release" command from the "Tools" menu.\n  It remains the customer's responsibility to verify proper and reliable operation in the actual application.\n  Component substitution and printed circuit board layout may significantly affect circuit performance or reliability\n  Contact your local sales representative for assistance. This circuit is distributed to customers only for use with LTC parts\n  Copyright © 2011 Linear Technology Inc. All rights reserved.
