Version 4
SHEET 1 1792 1108
WIRE 288 240 176 240
WIRE 576 240 288 240
WIRE 784 240 576 240
WIRE 176 256 176 240
WIRE 288 272 288 240
WIRE 576 272 576 240
WIRE 944 320 752 320
WIRE 1056 320 944 320
WIRE 944 336 944 320
WIRE 1056 336 1056 320
WIRE 176 368 176 336
WIRE 288 368 288 336
WIRE 832 384 752 384
WIRE 832 400 832 384
WIRE 944 432 944 400
WIRE 1056 432 1056 416
WIRE 784 448 784 240
WIRE 784 448 752 448
WIRE 832 496 832 480
WIRE 576 512 576 496
FLAG 576 512 0
FLAG 832 496 0
FLAG 176 240 IN
FLAG 1056 320 OUT
FLAG 288 368 0
FLAG 176 368 0
FLAG 944 432 0
FLAG 1056 432 0
SYMBOL voltage 176 240 R0
WINDOW 123 0 0 Left 0
WINDOW 39 12 125 Left 0
SYMATTR InstName V1
SYMATTR Value 5
SYMBOL res 816 384 R0
SYMATTR InstName R1
SYMATTR Value 2.37K
SYMBOL cap 928 336 R0
WINDOW 0 28 0 Left 0
WINDOW 3 44 35 Left 0
WINDOW 40 32 64 Left 0
SYMATTR InstName C1
SYMATTR Value 22µ
SYMATTR SpiceLine2 x2
SYMATTR SpiceLine Rser=5m
SYMBOL cap 272 272 R0
WINDOW 3 22 51 Left 0
SYMATTR Value 10µ
SYMATTR InstName C2
SYMBOL res 1040 320 R0
SYMATTR InstName Rload
SYMATTR Value 0.62
SYMBOL PowerProducts\\LTM4604A 576 384 R0
SYMATTR InstName U1
TEXT 960 512 Left 0 !.tran 1m startup
TEXT 584 216 Bottom 0 ;LTM4604A - 4A, Step-Down DC/DC µModule in 15mm×9mm×2.3mm LGA package\nInput: 5V     Output: 2.5V @ 4A
TEXT 8 552 Left 0 ;Note:\n  If the simulation model is not found please update with the "Sync Release" command from the "Tools" menu.\n  It remains the customer's responsibility to verify proper and reliable operation in the actual application.\n  Component substitution and printed circuit board layout may significantly affect circuit performance or reliability\n  Contact your local sales representative for assistance. This circuit is distributed to customers only for use with LTC parts\n  Copyright © 2010 Linear Technology Inc. All rights reserved.
