Version 4
SHEET 1 1476 692
WIRE 384 64 160 64
WIRE 160 80 160 64
WIRE 384 80 384 64
WIRE 512 80 512 64
WIRE 272 128 256 128
WIRE 768 128 624 128
WIRE 832 128 768 128
WIRE 944 128 832 128
WIRE 1056 128 944 128
WIRE 832 144 832 128
WIRE 944 144 944 128
WIRE 1056 144 1056 128
WIRE 160 176 160 160
WIRE 272 176 256 176
WIRE 640 176 624 176
WIRE 736 176 720 176
WIRE 272 224 256 224
WIRE 640 224 624 224
WIRE 832 240 832 208
WIRE 944 240 944 208
WIRE 1056 240 1056 224
WIRE 272 272 256 272
WIRE 640 272 624 272
WIRE 768 272 768 128
WIRE 768 272 720 272
WIRE 384 336 384 320
WIRE 512 336 512 320
FLAG 160 176 0
FLAG 384 336 0
FLAG 512 336 0
FLAG 1056 240 0
FLAG 736 176 0
FLAG 1056 128 OUT
FLAG 160 64 IN
FLAG 256 176 0
FLAG 832 240 0
FLAG 944 240 0
SYMBOL voltage 160 64 R0
WINDOW 123 0 0 Left 0
WINDOW 39 0 0 Left 0
SYMATTR InstName V1
SYMATTR Value 20
SYMBOL res 624 192 R270
WINDOW 0 32 56 VTop 0
WINDOW 3 0 56 VBottom 0
SYMATTR InstName R1
SYMATTR Value 22.1k
SYMBOL res 736 256 R90
WINDOW 0 0 56 VBottom 0
WINDOW 3 32 56 VTop 0
SYMATTR InstName R2
SYMATTR Value 100K
SYMBOL res 1040 128 R0
SYMATTR InstName Rload
SYMATTR Value 0.66
SYMBOL PowerProducts\\LTM4602HV 448 192 R0
SYMATTR InstName U1
SYMBOL cap 816 144 R0
SYMATTR InstName C1
SYMATTR Value 100µ
SYMATTR SpiceLine Rser=5m
SYMBOL cap 928 144 R0
SYMATTR InstName C2
SYMATTR Value 22µ
SYMATTR SpiceLine Rser=5m
TEXT 864 320 Left 0 !.tran 2.5m startup
TEXT 440 32 Bottom 0 ;LTM4602HV - 6A Step-Down DC/DC µModule\nInput: 20V     Output: 3.3V @ 5A
TEXT -112 368 Left 0 ;Note:\n  If the simulation model is not found please update with the "Sync Release" command from the "Tools" menu.\n  It remains the customer's responsibility to verify proper and reliable operation in the actual application.\n  Component substitution and printed circuit board layout may significantly affect circuit performance or reliability\n  Contact your local sales representative for assistance. This circuit is distributed to customers only for use with LTC parts\n  Copyright © 2010 Linear Technology Inc. All rights reserved.
