Version 4
SHEET 1 2016 908
WIRE 528 -160 16 -160
WIRE -256 -144 -352 -144
WIRE -176 -144 -256 -144
WIRE -80 -144 -176 -144
WIRE 96 -144 -80 -144
WIRE 256 -144 96 -144
WIRE 384 -144 256 -144
WIRE -352 -128 -352 -144
WIRE -256 -128 -256 -144
WIRE -176 -128 -176 -144
WIRE -80 -128 -80 -144
WIRE 256 -128 256 -144
WIRE 384 -128 384 -144
WIRE 96 -64 96 -144
WIRE 144 -64 96 -64
WIRE -352 -32 -352 -48
WIRE -256 -32 -256 -64
WIRE 16 32 16 -160
WIRE 144 32 16 32
WIRE 528 32 528 -160
WIRE 528 32 496 32
WIRE 64 128 48 128
WIRE 144 128 128 128
WIRE 576 128 496 128
WIRE 672 128 576 128
WIRE 752 128 672 128
WIRE 832 128 752 128
WIRE 944 128 944 96
WIRE 944 128 832 128
WIRE 576 144 576 128
WIRE 672 144 672 128
WIRE 752 144 752 128
WIRE 832 144 832 128
WIRE 944 144 944 128
WIRE 576 224 576 208
WIRE 576 224 496 224
WIRE 576 240 576 224
WIRE 16 320 16 32
WIRE 144 320 16 320
WIRE -176 512 -176 -64
WIRE -80 512 -80 -64
WIRE -80 512 -176 512
WIRE 48 512 48 128
WIRE 48 512 -80 512
WIRE 256 512 256 480
WIRE 256 512 48 512
WIRE 384 512 384 480
WIRE 384 512 256 512
WIRE 576 512 576 320
WIRE 576 512 384 512
WIRE 672 512 672 208
WIRE 672 512 576 512
WIRE 752 512 752 208
WIRE 752 512 672 512
WIRE 832 512 832 208
WIRE 832 512 752 512
WIRE 944 512 944 224
WIRE 944 512 832 512
FLAG -352 -144 IN
FLAG 944 96 0
FLAG 944 512 OUT
FLAG -352 -32 0
FLAG -256 -32 0
SYMBOL voltage -352 -144 R0
WINDOW 123 0 0 Left 2
WINDOW 39 0 0 Left 2
SYMATTR InstName V1
SYMATTR Value 12
SYMBOL cap 128 112 R90
WINDOW 0 0 32 VBottom 2
WINDOW 3 32 32 VTop 2
SYMATTR InstName C9
SYMATTR Value .001µ
SYMBOL res 560 224 R0
SYMATTR InstName R4
SYMATTR Value 121K
SYMBOL cap 656 144 R0
SYMATTR InstName C16
SYMATTR Value 22µ
SYMATTR SpiceLine Rser=2m
SYMBOL res 928 128 R0
SYMATTR InstName Rload
SYMATTR Value 0.3
SYMBOL polcap -272 -128 R0
SYMATTR InstName C10
SYMATTR Value 22µ
SYMATTR SpiceLine Rser=45m
SYMBOL cap 560 144 R0
SYMATTR InstName C8
SYMATTR Value 100p
SYMBOL cap 736 144 R0
SYMATTR InstName C20
SYMATTR Value 47µ
SYMATTR SpiceLine Rser=2m
SYMBOL cap 816 144 R0
SYMATTR InstName C12
SYMATTR Value 100µ
SYMATTR SpiceLine Rser=2m
SYMBOL cap -192 -128 R0
SYMATTR InstName C2
SYMATTR Value 10µ
SYMATTR SpiceLine Rser=5m
SYMBOL cap -96 -128 R0
SYMATTR InstName C13
SYMATTR Value 22µ
SYMATTR SpiceLine Rser=5m
SYMBOL PowerProducts\\LTM4625 320 176 R0
SYMATTR InstName U2
TEXT 704 560 Left 2 !.tran .5m startup
TEXT 360 -176 Bottom 2 ;LTM4625 - 20Vin, 5A Step-Down DC/DC µModule\n3A Inverting Buck-Boost µModule Regulator\nInput: 4V to 15V (where Vin + |Vout| < 22V)     Output: -0.9V @ 3A
TEXT -360 576 Left 2 ;Note:\n  If the simulation model is not found please update with the "Sync Release" command from the "Tools" menu.\n  It remains the customer's responsibility to verify proper and reliable operation in the actual application.\n  Component substitution and printed circuit board layout may significantly affect circuit performance or reliability\n  Contact your local sales representative for assistance. This circuit is distributed to customers only for use with LTC parts\n  Copyright © 2017 Linear Technology Inc. All rights reserved.
