Version 4
SHEET 1 1100 828
WIRE 176 -32 -16 -32
WIRE 432 -32 256 -32
WIRE -272 16 -368 16
WIRE -192 16 -272 16
WIRE -112 16 -192 16
WIRE 128 16 -112 16
WIRE -368 32 -368 16
WIRE -272 32 -272 16
WIRE -192 32 -192 16
WIRE 128 32 128 16
WIRE 272 32 272 16
WIRE -16 80 -16 -32
WIRE 16 80 -16 80
WIRE 432 80 432 -32
WIRE 432 80 400 80
WIRE 656 80 432 80
WIRE -368 128 -368 112
WIRE -272 128 -272 96
WIRE -192 128 -192 96
WIRE -112 144 -112 16
WIRE -80 144 -112 144
WIRE 16 144 0 144
WIRE 432 144 400 144
WIRE 496 144 432 144
WIRE 592 144 576 144
WIRE 16 208 0 208
WIRE 432 208 400 208
WIRE 16 272 0 272
WIRE 432 272 432 208
WIRE 432 272 400 272
WIRE 0 336 0 272
WIRE 16 336 0 336
WIRE 560 336 400 336
WIRE 656 336 656 80
WIRE 656 336 560 336
WIRE 752 336 656 336
WIRE 656 352 656 336
WIRE 752 352 752 336
WIRE -80 400 -96 400
WIRE 16 400 0 400
WIRE 560 400 400 400
WIRE 560 432 560 400
WIRE 656 432 656 416
WIRE 752 448 752 432
WIRE 16 464 0 464
WIRE 416 464 400 464
WIRE -64 528 -80 528
WIRE 16 528 0 528
WIRE 416 528 400 528
WIRE 128 608 128 592
WIRE 288 608 288 592
FLAG 128 608 0
FLAG 288 608 0
FLAG 592 144 0
FLAG -96 400 0
FLAG 560 432 0
FLAG 752 448 0
FLAG -368 128 0
FLAG -80 528 0
FLAG 752 336 OUT
FLAG -368 16 IN
FLAG 416 464 0
FLAG 416 528 0
FLAG -192 128 0
FLAG -272 128 0
FLAG 656 432 0
SYMBOL cap 416 80 R0
WINDOW 0 34 18 Left 0
WINDOW 3 35 47 Left 0
SYMATTR InstName C1
SYMATTR Value 47p
SYMBOL res 480 160 R270
WINDOW 0 32 56 VTop 0
WINDOW 3 0 56 VBottom 0
SYMATTR InstName R1
SYMATTR Value 30.1k
SYMBOL res 16 416 M270
WINDOW 0 32 56 VTop 0
WINDOW 3 0 56 VBottom 0
SYMATTR InstName R2
SYMATTR Value 392K
SYMBOL cap 544 336 R0
WINDOW 0 29 18 Left 0
WINDOW 3 28 55 Left 0
SYMATTR InstName C2
SYMATTR Value 100µ
SYMATTR SpiceLine Rser=5m
SYMBOL res 272 -48 R90
WINDOW 0 0 56 VBottom 0
WINDOW 3 32 56 VTop 0
SYMATTR InstName R3
SYMATTR Value 100K
SYMBOL res -96 160 R270
WINDOW 0 32 56 VTop 0
WINDOW 3 0 56 VBottom 0
SYMATTR InstName R4
SYMATTR Value 100K
SYMBOL cap 0 512 R90
WINDOW 0 0 32 VBottom 0
WINDOW 3 32 32 VTop 0
SYMATTR InstName C3
SYMATTR Value .001µ
SYMBOL voltage -368 16 R0
WINDOW 123 0 0 Left 0
WINDOW 39 0 0 Left 0
SYMATTR InstName V1
SYMATTR Value 20
SYMBOL res 736 336 R0
SYMATTR InstName Rload
SYMATTR Value 0.3
SYMBOL PowerProducts\\LTM4603HV 208 288 R0
SYMATTR InstName U1
SYMBOL cap 640 352 R0
WINDOW 3 28 50 Left 0
SYMATTR InstName C4
SYMATTR Value 10µ
SYMATTR SpiceLine Rser=5m
SYMBOL cap -208 32 R0
WINDOW 40 28 74 Left 0
WINDOW 3 29 48 Left 0
SYMATTR SpiceLine2 x2
SYMATTR Value 10µ
SYMATTR InstName C5
SYMATTR SpiceLine Rser=5m
SYMBOL cap -288 32 R0
SYMATTR InstName C6
SYMATTR Value 150µ
SYMATTR SpiceLine Rser=23m
TEXT 552 544 Left 0 !.tran 750u startup
TEXT 208 -80 Bottom 0 ;LTM4603HV - 6A Step-Down DC/DC µModule\nInput: 20V     Output: 1.8V @ 6A
TEXT -432 632 Left 0 ;Note:\n  If the simulation model is not found please update with the "Sync Release" command from the "Tools" menu.\n  It remains the customer's responsibility to verify proper and reliable operation in the actual application.\n  Component substitution and printed circuit board layout may significantly affect circuit performance or reliability\n  Contact your local sales representative for assistance. This circuit is distributed to customers only for use with LTC parts\n  Copyright © 2010 Linear Technology Inc. All rights reserved.
