Version 4
SHEET 1 1868 1108
WIRE 160 -96 48 -96
WIRE 240 -96 160 -96
WIRE 720 -96 240 -96
WIRE 48 -80 48 -96
WIRE 160 -80 160 -96
WIRE 400 -64 304 -64
WIRE 480 -64 400 -64
WIRE 624 -64 480 -64
WIRE 304 -48 304 -64
WIRE 624 -48 624 -64
WIRE 720 -48 720 -96
WIRE 400 -32 400 -64
WIRE 48 16 48 0
WIRE 160 16 160 -16
WIRE 1040 16 832 16
WIRE 1152 16 1040 16
WIRE 1248 16 1152 16
WIRE 1040 32 1040 16
WIRE 1152 32 1152 16
WIRE 1248 32 1248 16
WIRE 304 48 304 32
WIRE 400 48 400 32
WIRE 480 80 480 -64
WIRE 512 80 480 80
WIRE 848 80 832 80
WIRE 944 80 928 80
WIRE 1040 128 1040 96
WIRE 1152 128 1152 96
WIRE 1248 128 1248 112
WIRE 480 144 480 80
WIRE 512 144 480 144
WIRE 848 144 832 144
WIRE 992 208 832 208
WIRE 1040 208 992 208
WIRE 1152 208 1040 208
WIRE 1248 208 1152 208
WIRE 1040 224 1040 208
WIRE 1152 224 1152 208
WIRE 1248 224 1248 208
WIRE 240 272 240 -96
WIRE 480 272 240 272
WIRE 512 272 480 272
WIRE 848 272 832 272
WIRE 944 272 928 272
WIRE 1040 320 1040 288
WIRE 1152 320 1152 288
WIRE 1248 320 1248 304
WIRE 480 336 480 272
WIRE 512 336 480 336
WIRE 848 336 832 336
WIRE 992 400 992 208
WIRE 992 400 832 400
WIRE 1040 464 832 464
WIRE 1248 464 1040 464
WIRE 1248 480 1248 464
WIRE 1040 496 1040 464
WIRE 512 528 480 528
WIRE 848 528 832 528
WIRE 944 528 928 528
WIRE 1040 576 1040 560
WIRE 1248 576 1248 560
WIRE 592 608 592 592
WIRE 672 608 672 592
WIRE 752 608 752 592
WIRE 480 640 480 528
WIRE 992 640 992 400
WIRE 992 640 480 640
FLAG 592 608 0
FLAG 944 80 0
FLAG 304 -64 IN1
FLAG 1248 16 OUT1
FLAG 400 48 0
FLAG 304 48 0
FLAG 1040 128 0
FLAG 1248 128 0
FLAG 672 608 0
FLAG 48 16 0
FLAG 48 -96 IN2
FLAG 944 272 0
FLAG 1040 320 0
FLAG 1248 320 0
FLAG 1152 128 0
FLAG 1152 320 0
FLAG 1248 208 OUT2
FLAG 160 16 0
FLAG 752 608 0
FLAG 944 528 0
FLAG 1040 576 0
FLAG 1248 576 0
FLAG 1248 464 OUT3
SYMBOL voltage 304 -64 R0
WINDOW 123 24 146 Left 0
WINDOW 39 24 125 Left 0
SYMATTR Value 5
SYMATTR InstName V1
SYMBOL res 832 96 R270
WINDOW 0 32 56 VTop 0
WINDOW 3 0 56 VBottom 0
SYMATTR InstName R1
SYMATTR Value 4.02K
SYMBOL cap 1024 32 R0
WINDOW 0 28 0 Left 0
WINDOW 3 44 35 Left 0
WINDOW 40 32 64 Left 0
SYMATTR InstName C1
SYMATTR Value 100µ
SYMATTR SpiceLine2 x1
SYMATTR SpiceLine Rser=5m
SYMBOL cap 384 -32 R0
WINDOW 3 22 51 Left 0
SYMATTR Value 120µ
SYMATTR InstName C2
SYMATTR SpiceLine V=10 Rser=10m
SYMBOL voltage 48 -96 R0
WINDOW 123 24 146 Left 0
WINDOW 39 24 125 Left 0
SYMATTR Value 3.3
SYMATTR InstName V2
SYMBOL res 832 288 R270
WINDOW 0 32 56 VTop 0
WINDOW 3 0 56 VBottom 0
SYMATTR InstName R2
SYMATTR Value 10K
SYMBOL cap 1024 224 R0
WINDOW 0 28 0 Left 0
WINDOW 3 44 35 Left 0
WINDOW 40 32 64 Left 0
SYMATTR InstName C3
SYMATTR Value 100µ
SYMATTR SpiceLine2 x1
SYMATTR SpiceLine Rser=5m
SYMBOL res 1232 16 R0
SYMATTR InstName Rload1
SYMATTR Value 0.45
SYMBOL res 1232 208 R0
SYMATTR InstName Rload2
SYMATTR Value 0.48
SYMBOL cap 1136 32 R0
SYMATTR InstName C4
SYMATTR Value 22µ
SYMATTR SpiceLine V=6.3 Rser=5m
SYMBOL cap 144 -80 R0
SYMATTR InstName C5
SYMATTR Value 120µ
SYMATTR SpiceLine V=10 Rser=10m
SYMBOL cap 1136 224 R0
SYMATTR InstName C6
SYMATTR Value 22µ
SYMATTR SpiceLine V=6.3 Rser=5m
SYMBOL PowerProducts\\LTM4615 672 272 R0
SYMATTR InstName U1
SYMBOL res 832 544 R270
WINDOW 0 32 56 VTop 0
WINDOW 3 0 56 VBottom 0
SYMATTR InstName R3
SYMATTR Value 3.32K
SYMBOL cap 1024 496 R0
SYMATTR InstName C7
SYMATTR Value 10µ
SYMATTR SpiceLine V=6.3 Rser=5m
SYMBOL res 1232 464 R0
SYMATTR InstName Rload3
SYMATTR Value 0.67
TEXT 1232 616 Left 0 !.tran 1.2m startup
TEXT 744 -104 Bottom 0 ;LTM4615 - Dual 4A + VLDO, Step-Down DC/DC µModule in 15mm×15mm×2.8mm LGA package\nInput1: 5V  Output1: 1.8V @ 4A   Input2: 3.3V   Output2: 1.2V@4A   LDO_in: 1.2V   LDO_out: 1V
TEXT 112 640 Left 0 ;Note:\n  If the simulation model is not found please update with the "Sync Release" command from the "Tools" menu.\n  It remains the customer's responsibility to verify proper and reliable operation in the actual application.\n  Component substitution and printed circuit board layout may significantly affect circuit performance or reliability\n  Contact your local sales representative for assistance. This circuit is distributed to customers only for use with LTC parts\n  Copyright © 2010 Linear Technology Inc. All rights reserved.
