Version 4
SHEET 1 2228 2428
WIRE 272 -64 -336 -64
WIRE -496 -16 -592 -16
WIRE -416 -16 -496 -16
WIRE -288 -16 -416 -16
WIRE -240 -16 -288 -16
WIRE 128 -16 -240 -16
WIRE -592 0 -592 -16
WIRE -496 0 -496 -16
WIRE -416 0 -416 -16
WIRE 128 0 128 -16
WIRE 272 0 272 -64
WIRE -240 16 -240 -16
WIRE 16 48 0 48
WIRE 512 48 400 48
WIRE 608 48 512 48
WIRE 672 48 608 48
WIRE 768 48 672 48
WIRE 864 48 768 48
WIRE 672 64 672 48
WIRE 768 64 768 48
WIRE 864 64 864 48
WIRE -592 96 -592 80
WIRE -496 96 -496 64
WIRE -416 96 -416 64
WIRE -240 112 -240 96
WIRE 16 112 -240 112
WIRE 512 112 400 112
WIRE 672 160 672 128
WIRE 768 160 768 128
WIRE 864 160 864 144
WIRE 16 176 -192 176
WIRE 464 176 400 176
WIRE 16 240 0 240
WIRE 464 240 464 176
WIRE 464 240 400 240
WIRE 0 304 0 240
WIRE 0 304 -704 304
WIRE 16 304 0 304
WIRE 608 304 608 48
WIRE 608 304 400 304
WIRE -96 368 -112 368
WIRE 16 368 -16 368
WIRE 416 368 400 368
WIRE -784 384 -800 384
WIRE -704 384 -704 304
WIRE -704 384 -720 384
WIRE -592 384 -704 384
WIRE -336 384 -336 -64
WIRE -336 384 -368 384
WIRE -704 432 -704 384
WIRE 16 432 0 432
WIRE 416 432 400 432
WIRE -592 464 -608 464
WIRE -336 464 -368 464
WIRE 16 496 -144 496
WIRE 416 496 400 496
WIRE -704 544 -704 512
WIRE -592 544 -704 544
WIRE -336 544 -336 464
WIRE -336 544 -368 544
WIRE 128 576 128 560
WIRE 288 576 288 560
WIRE -288 608 -288 -16
WIRE 208 608 -288 608
WIRE 208 640 208 608
WIRE 16 688 0 688
WIRE 464 688 464 240
WIRE 464 688 400 688
WIRE -240 752 -240 112
WIRE 16 752 -240 752
WIRE 608 752 608 304
WIRE 608 752 400 752
WIRE -192 816 -192 176
WIRE 16 816 -192 816
WIRE 512 816 512 112
WIRE 512 816 400 816
WIRE 624 816 512 816
WIRE 512 848 512 816
WIRE 624 864 624 816
WIRE 16 880 0 880
WIRE 416 880 400 880
WIRE 0 944 0 880
WIRE 16 944 0 944
WIRE 416 944 400 944
WIRE 512 960 512 928
WIRE 624 960 624 928
WIRE -96 1008 -112 1008
WIRE 16 1008 -16 1008
WIRE 448 1008 400 1008
WIRE -336 1072 -336 544
WIRE 16 1072 -336 1072
WIRE 416 1072 400 1072
WIRE 128 1152 128 1136
WIRE 288 1152 288 1136
WIRE -240 1200 -272 1200
WIRE -144 1200 -144 496
WIRE -144 1200 -176 1200
WIRE 448 1200 448 1008
WIRE 448 1200 -144 1200
FLAG 128 576 0
FLAG 288 576 0
FLAG 512 960 0
FLAG -112 368 0
FLAG 416 368 0
FLAG 864 160 0
FLAG -592 96 0
FLAG 864 48 OUT
FLAG -592 -16 IN
FLAG -416 96 0
FLAG 768 160 0
FLAG 672 160 0
FLAG 128 1152 0
FLAG 288 1152 0
FLAG -112 1008 0
FLAG -272 1200 0
FLAG -496 96 0
FLAG 624 960 0
FLAG -608 464 0
FLAG -800 384 0
SYMBOL PowerProducts\\LTM4601 208 256 R0
SYMATTR InstName U1
SYMBOL cap 496 48 R0
WINDOW 0 34 18 Left 0
WINDOW 3 35 47 Left 0
SYMATTR InstName C1
SYMATTR Value 220p
SYMBOL res 496 832 R0
SYMATTR InstName R1
SYMATTR Value 60.4K
SYMATTR SpiceLine tol=1 pwr=0.1
SYMBOL res 0 384 M270
WINDOW 0 32 56 VTop 0
WINDOW 3 0 56 VBottom 0
SYMATTR InstName R2
SYMATTR Value 392K
SYMBOL cap 656 64 R0
WINDOW 3 42 32 Left 0
WINDOW 40 29 58 Left 0
SYMATTR Value 22µ
SYMATTR SpiceLine2 x2
SYMATTR InstName C2
SYMATTR SpiceLine Rser=1m
SYMBOL res -256 0 R0
SYMATTR InstName R3
SYMATTR Value 100K
SYMBOL voltage -592 -16 R0
WINDOW 123 0 0 Left 0
WINDOW 39 0 0 Left 0
SYMATTR InstName V1
SYMATTR Value 12
SYMBOL cap -432 0 R0
WINDOW 3 44 31 Left 0
WINDOW 39 29 57 Left 0
SYMATTR Value 10µ
SYMATTR SpiceLine x4
SYMATTR InstName C3
SYMBOL cap 752 64 R0
WINDOW 3 39 30 Left 0
WINDOW 40 27 58 Left 0
SYMATTR Value 470µ
SYMATTR SpiceLine2 x2
SYMATTR InstName C4
SYMATTR SpiceLine Rser=10m
SYMBOL res 0 1024 M270
WINDOW 0 32 56 VTop 0
WINDOW 3 0 56 VBottom 0
SYMATTR InstName R4
SYMATTR Value 392K
SYMBOL cap -176 1184 R90
WINDOW 0 0 32 VBottom 0
WINDOW 3 32 32 VTop 0
SYMATTR InstName C5
SYMATTR Value .001µ
SYMBOL cap -512 0 R0
SYMATTR InstName C6
SYMATTR Value 100µ
SYMBOL cap 608 864 R0
SYMATTR InstName C7
SYMATTR Value 100p
SYMBOL PowerProducts\\LTM4601-1 208 896 R0
SYMATTR InstName U2
SYMBOL SpecialFunctions\\LTC6908-1 -480 464 R0
SYMATTR InstName U3
SYMBOL cap -720 368 R90
WINDOW 0 0 32 VBottom 0
WINDOW 3 32 32 VTop 0
SYMATTR InstName C8
SYMATTR Value 1µ
SYMBOL res -720 416 R0
SYMATTR InstName R5
SYMATTR Value 118K
SYMATTR SpiceLine tol=1 pwr=0.1
SYMBOL res 848 48 R0
SYMATTR InstName Rload
SYMATTR Value .0375
TEXT 216 -72 Bottom 0 ;LTM4601 - 12A DC/DC µModules with PLL, Output Tracking and Margining\nInput: 4.5V to 20V     Output: 2-Phase Parallel .9V @ 24A, Fswitch = 850KHz
TEXT -448 1240 Left 0 ;Note:\n  If the simulation model is not found please update with the "Sync Release" command from the "Tools" menu.\n  It remains the customer's responsibility to verify proper and reliable operation in the actual application.\n  Component substitution and printed circuit board layout may significantly affect circuit performance or reliability\n  Contact your local sales representative for assistance. This circuit is distributed to customers only for use with LTC parts\n  Copyright © 2011 Linear Technology Inc. All rights reserved.
TEXT 488 1184 Left 0 !.tran .5m startup
