Version 4
SHEET 1 1468 1892
WIRE -208 -16 -320 -16
WIRE -112 -16 -208 -16
WIRE -64 -16 -112 -16
WIRE 320 -16 -64 -16
WIRE -320 0 -320 -16
WIRE -208 0 -208 -16
WIRE -64 0 -64 -16
WIRE 672 16 512 16
WIRE 320 48 320 -16
WIRE 416 48 416 32
WIRE 512 48 512 16
WIRE -320 96 -320 80
WIRE -208 96 -208 64
WIRE -64 96 -64 80
WIRE 208 96 -64 96
WIRE 768 96 624 96
WIRE 816 96 768 96
WIRE 896 96 816 96
WIRE 1024 96 896 96
WIRE 1136 96 1024 96
WIRE 1136 112 1136 96
WIRE 896 128 896 96
WIRE 1024 128 1024 96
WIRE 208 192 192 192
WIRE 720 192 624 192
WIRE 896 224 896 192
WIRE 1024 224 1024 192
WIRE 1136 224 1136 192
WIRE 112 288 96 288
WIRE 208 288 192 288
WIRE 720 288 720 192
WIRE 720 288 624 288
WIRE 208 384 -160 384
WIRE 816 384 816 96
WIRE 816 384 624 384
WIRE 816 448 816 384
WIRE 208 480 0 480
WIRE 640 480 624 480
WIRE 208 576 64 576
WIRE 816 576 816 512
WIRE 816 576 624 576
WIRE 352 640 352 624
WIRE 480 640 480 624
WIRE 672 672 672 16
WIRE 672 672 -528 672
WIRE -112 704 -112 -16
WIRE 320 704 -112 704
WIRE 320 720 320 704
WIRE 416 720 416 704
WIRE 512 720 512 704
WIRE -608 752 -624 752
WIRE -528 752 -528 672
WIRE -528 752 -544 752
WIRE -416 752 -528 752
WIRE -160 752 -160 384
WIRE -160 752 -192 752
WIRE -64 768 -64 96
WIRE 208 768 -64 768
WIRE 768 768 768 96
WIRE 768 768 624 768
WIRE -528 800 -528 752
WIRE -416 832 -432 832
WIRE -160 832 -192 832
WIRE 208 864 192 864
WIRE 720 864 720 288
WIRE 720 864 624 864
WIRE -528 912 -528 880
WIRE -416 912 -528 912
WIRE -160 912 -160 832
WIRE -160 912 -192 912
WIRE 112 960 96 960
WIRE 208 960 192 960
WIRE 640 960 624 960
WIRE -160 1056 -160 912
WIRE 208 1056 -160 1056
WIRE 640 1056 624 1056
WIRE -80 1152 -96 1152
WIRE 0 1152 0 480
WIRE 0 1152 -16 1152
WIRE 208 1152 0 1152
WIRE 672 1152 672 672
WIRE 672 1152 624 1152
WIRE -32 1248 -64 1248
WIRE 64 1248 64 576
WIRE 64 1248 32 1248
WIRE 208 1248 64 1248
WIRE 816 1248 816 576
WIRE 816 1248 624 1248
WIRE 864 1248 816 1248
WIRE 976 1248 944 1248
WIRE 352 1312 352 1296
WIRE 480 1312 480 1296
FLAG -320 96 0
FLAG 96 288 0
FLAG 352 640 0
FLAG 480 640 0
FLAG 1136 224 0
FLAG 1136 96 OUT
FLAG -320 -16 IN
FLAG -208 96 0
FLAG 896 224 0
FLAG 1024 224 0
FLAG 96 960 0
FLAG 352 1312 0
FLAG 480 1312 0
FLAG -64 1248 0
FLAG -96 1152 0
FLAG 976 1248 0
FLAG 640 1056 0
FLAG 640 480 0
FLAG -432 832 0
FLAG -624 752 0
SYMBOL PowerProducts\\LTM4627 416 336 R0
SYMATTR InstName U1
SYMBOL voltage -320 -16 R0
SYMATTR InstName V1
SYMATTR Value 12
SYMBOL res -80 -16 R0
SYMATTR InstName R1
SYMATTR Value 10K
SYMBOL res 208 272 R90
WINDOW 0 0 56 VBottom 0
WINDOW 3 32 56 VTop 0
SYMATTR InstName R2
SYMATTR Value 90.9K
SYMBOL cap -224 0 R0
WINDOW 3 41 33 Left 0
WINDOW 39 24 61 Left 0
SYMATTR Value 22µ
SYMATTR SpiceLine x6
SYMATTR InstName C1
SYMBOL cap 800 448 R0
SYMATTR InstName C2
SYMATTR Value 150p
SYMBOL cap 880 128 R0
WINDOW 3 48 35 Left 0
WINDOW 40 30 66 Left 0
SYMATTR Value 470µ
SYMATTR SpiceLine2 x2
SYMATTR InstName C3
SYMATTR SpiceLine Rser=9m
SYMBOL cap 1008 128 R0
WINDOW 3 42 35 Left 0
WINDOW 40 36 67 Left 0
SYMATTR Value 100µ
SYMATTR SpiceLine2 x2
SYMATTR InstName C4
SYMATTR SpiceLine Rser=3m
SYMBOL PowerProducts\\LTM4627 416 1008 R0
SYMATTR InstName U2
SYMBOL res 208 944 R90
WINDOW 0 0 56 VBottom 0
WINDOW 3 32 56 VTop 0
SYMATTR InstName R3
SYMATTR Value 90.9K
SYMBOL cap 32 1232 R90
WINDOW 0 0 32 VBottom 0
WINDOW 3 32 32 VTop 0
SYMATTR InstName C5
SYMATTR Value .001µ
SYMBOL cap -16 1136 R90
WINDOW 0 0 32 VBottom 0
WINDOW 3 32 32 VTop 0
SYMATTR InstName C6
SYMATTR Value 270p
SYMBOL res 848 1264 R270
WINDOW 0 32 56 VTop 0
WINDOW 3 0 56 VBottom 0
SYMATTR InstName R4
SYMATTR Value 60.4K
SYMATTR SpiceLine tol=1 pwr=0.1
SYMBOL SpecialFunctions\\LTC6908-1 -304 832 R0
SYMATTR InstName U3
SYMBOL cap -544 736 R90
WINDOW 0 0 32 VBottom 0
WINDOW 3 32 32 VTop 0
SYMATTR InstName C7
SYMATTR Value 1µ
SYMBOL res -544 784 R0
SYMATTR InstName R5
SYMATTR Value 250K
SYMBOL res 1120 96 R0
SYMATTR InstName Rload
SYMATTR Value 0.03
TEXT -224 1328 Left 0 ;Note:\n  If the simulation model is not found please update with the "Sync Release" command from the "Tools" menu.\n  It remains the customer's responsibility to verify proper and reliable operation in the actual application.\n  Component substitution and printed circuit board layout may significantly affect circuit performance or reliability\n  Contact your local sales representative for assistance. This circuit is distributed to customers only for use with LTC parts\n  Copyright © 2011 Linear Technology Inc. All rights reserved.
TEXT 416 -24 Bottom 0 ;LTM4627 - 15A DC/DC µModule Regulator\nTwo Parallel Outputs with 2-Phase Operation\nInput: 7V to 16V     Output: .9V @ 30A, Fswitch = 400kHz
TEXT 984 1128 Left 0 !.tran 400u startup
