Version 4
SHEET 1 6000 3332
WIRE -1696 -816 -1792 -816
WIRE -1600 -816 -1696 -816
WIRE -1408 -816 -1600 -816
WIRE -1168 -816 -1408 -816
WIRE -544 -816 -1168 -816
WIRE -480 -816 -544 -816
WIRE -240 -816 -480 -816
WIRE 384 -816 -240 -816
WIRE -1792 -800 -1792 -816
WIRE -1696 -800 -1696 -816
WIRE -1600 -800 -1600 -816
WIRE -1296 -784 -1488 -784
WIRE -784 -784 -1296 -784
WIRE -1488 -768 -1488 -784
WIRE -1296 -768 -1296 -784
WIRE -1792 -704 -1792 -720
WIRE -1696 -704 -1696 -736
WIRE -1600 -704 -1600 -736
WIRE -1296 -672 -1296 -688
WIRE -656 -672 -1296 -672
WIRE -368 -672 -656 -672
WIRE 272 -672 -368 -672
WIRE -1296 -640 -1296 -672
WIRE -1168 -640 -1168 -816
WIRE -784 -640 -784 -784
WIRE -656 -640 -656 -672
WIRE -368 -640 -368 -672
WIRE -240 -640 -240 -816
WIRE 272 -640 272 -672
WIRE -1408 -576 -1408 -816
WIRE -1376 -576 -1408 -576
WIRE -544 -576 -544 -816
WIRE -544 -576 -576 -576
WIRE -480 -576 -480 -816
WIRE -448 -576 -480 -576
WIRE 384 -576 384 -816
WIRE 384 -576 352 -576
WIRE -1376 -384 -1392 -384
WIRE -560 -384 -576 -384
WIRE -448 -384 -480 -384
WIRE 368 -384 352 -384
WIRE -1376 -288 -1440 -288
WIRE -512 -288 -576 -288
WIRE -448 -288 -512 -288
WIRE 416 -288 352 -288
WIRE 464 -288 416 -288
WIRE 592 -288 464 -288
WIRE 688 -288 592 -288
WIRE 768 -288 688 -288
WIRE 464 -272 464 -288
WIRE 592 -272 592 -288
WIRE 768 -272 768 -288
WIRE -1376 -192 -1408 -192
WIRE -544 -192 -576 -192
WIRE -448 -192 -480 -192
WIRE 384 -192 352 -192
WIRE 464 -176 464 -208
WIRE 592 -176 592 -208
WIRE 768 -176 768 -192
WIRE 768 -176 720 -176
WIRE 768 -160 768 -176
WIRE -1408 -96 -1408 -192
WIRE -1376 -96 -1408 -96
WIRE -544 -96 -544 -192
WIRE -544 -96 -576 -96
WIRE -480 -96 -480 -192
WIRE -448 -96 -480 -96
WIRE 384 -96 384 -192
WIRE 384 -96 352 -96
WIRE -1376 0 -1408 0
WIRE -544 0 -576 0
WIRE -448 0 -480 0
WIRE 384 0 352 0
WIRE -1408 96 -1408 0
WIRE -1376 96 -1408 96
WIRE -544 96 -544 0
WIRE -544 96 -576 96
WIRE -480 96 -480 0
WIRE -448 96 -480 96
WIRE 384 96 384 0
WIRE 384 96 352 96
WIRE -1440 192 -1440 -288
WIRE -1376 192 -1440 192
WIRE -512 192 -512 -288
WIRE -512 192 -576 192
WIRE -448 192 -512 192
WIRE 416 192 416 -288
WIRE 416 192 352 192
WIRE -1376 384 -1408 384
WIRE -544 384 -576 384
WIRE -448 384 -480 384
WIRE 720 384 720 -176
WIRE 720 384 352 384
WIRE -480 576 -480 384
WIRE -480 576 -576 576
WIRE 384 576 352 576
WIRE 432 576 384 576
WIRE 464 576 432 576
WIRE 576 576 544 576
WIRE 432 592 432 576
WIRE 576 592 576 576
WIRE 432 672 432 656
WIRE 576 672 576 656
WIRE -1168 752 -1168 736
WIRE -912 752 -912 736
WIRE -240 752 -240 736
WIRE 16 752 16 736
WIRE -1408 784 -1408 384
WIRE -480 784 -480 576
WIRE -480 784 -1408 784
WIRE 384 784 384 576
WIRE 384 784 -480 784
WIRE -1488 816 -1488 -688
WIRE -1296 816 -1296 736
WIRE -1296 816 -1488 816
WIRE -368 816 -368 736
WIRE -368 816 -1296 816
WIRE -1440 848 -1440 192
WIRE -512 848 -512 192
WIRE -512 848 -1440 848
WIRE 688 848 688 -288
WIRE 688 848 -512 848
WIRE -544 880 -544 384
WIRE 720 880 720 384
WIRE 720 880 -544 880
FLAG -1600 -704 0
FLAG -1792 -704 0
FLAG -1168 752 0
FLAG -912 752 0
FLAG -1792 -816 IN
FLAG 768 -160 0
FLAG -240 752 0
FLAG 16 752 0
FLAG 464 -176 0
FLAG 592 -176 0
FLAG 768 -288 OUT
FLAG -1696 -704 0
FLAG 432 672 0
FLAG 576 672 0
SYMBOL cap -1616 -800 R0
WINDOW 123 23 58 Left 2
WINDOW 3 37 32 Left 2
SYMATTR Value2 x10
SYMATTR Value 10µ
SYMATTR InstName C1
SYMBOL voltage -1792 -816 R0
WINDOW 123 0 0 Left 2
WINDOW 39 0 0 Left 2
SYMATTR InstName V1
SYMATTR Value 12
SYMBOL res -1312 -784 R0
SYMATTR InstName R1
SYMATTR Value 10K
SYMBOL res -1504 -784 R0
SYMATTR InstName R2
SYMATTR Value 10K
SYMBOL current 768 -272 R0
WINDOW 123 24 101 Left 2
WINDOW 39 24 108 Left 2
SYMATTR SpiceLine load
SYMATTR Value PULSE(36 54 1.3m 1u 1u .25m .5m)
SYMATTR InstName Iload
SYMBOL cap 448 -272 R0
WINDOW 123 24 55 Left 2
WINDOW 3 38 33 Left 2
SYMATTR Value2 x16
SYMATTR Value 100µ
SYMATTR InstName C2
SYMATTR SpiceLine Rser=2m
SYMBOL cap 576 -272 R0
WINDOW 123 24 53 Left 2
WINDOW 3 39 30 Left 2
SYMATTR Value2 x6
SYMATTR Value 470µ
SYMATTR InstName C3
SYMATTR SpiceLine Rser=4.5m
SYMBOL PowerProducts\\LTM4677 -976 48 R0
WINDOW 39 66 867 Center 2
WINDOW 40 67 892 Center 2
SYMATTR SpiceLine VIN_ON=5.5 VIN_OFF=5 Vout_0=1.0 Vout_1=1.0 Ilim0_range=1 Ilim1_range=1 OC_limit0=1 OC_limit1=1 Mode_ll=2 Fault_response=0 Retry_delay=.1m
SYMATTR InstName U1
SYMBOL PowerProducts\\LTM4677 -48 48 R0
WINDOW 39 -192 930 Center 2
WINDOW 40 -184 957 Center 2
SYMATTR SpiceLine VIN_ON=5.5 VIN_OFF=5 Vout_0=1.0 Vout_1=1.0 Ilim0_range=1 Ilim1_range=1 OC_limit0=1 OC_limit1=1 Mode_ll=2 Fault_response=0 Retry_delay=.1m
SYMATTR SpiceLine2 Freq=500K PHs_0=90 PHs_1=270 Ton0_delay=.3m Ton0_rise=.5m Ton1_delay=.3m Ton1_rise=.5m Toff0_delay=.2m Toff0_fall=.3m Toff1_delay=.2m Toff1_fall=.3m Vout0_range=0 Vout1_range=0
SYMATTR InstName U2
SYMBOL cap -1712 -800 R0
SYMATTR InstName C4
SYMATTR Value 150µ
SYMBOL cap 416 592 R0
WINDOW 39 24 77 Left 2
SYMATTR InstName C5
SYMATTR Value 220p
SYMBOL res 560 560 R90
WINDOW 0 0 56 VBottom 2
WINDOW 3 32 56 VTop 2
SYMATTR InstName R3
SYMATTR Value 2K
SYMBOL cap 560 592 R0
SYMATTR InstName C6
SYMATTR Value 6800p
TEXT 752 856 Left 2 !.tran 2m startup
TEXT -1512 1040 Left 1 ;Please read the following notes carefully, since the model presents different user interface than the real part does.\n (1) All PMBus communication and memory address related functions and pins are not modeled. \n (2) Changes to all parameter values during the simulation running will not be in effect, unless the simulation is stopped and restarted. This is different from the operation of the part, which will respond to the commanded changes while running. \n (3) Share_clk is not modeled. The default time reference of LTspice is used as the common time base for all time related parameters. \n (4) The following parameters can be defined, by right-clicking the symbol of LTC3880. Different nomenclature from the datasheet is adopted here. If any value of these parameters are set beyond the scope discribed in the datasheet, the resulting simulation outcomes are not meaningful.\n      VIN_ON & VIN_OFF -- in volts, set the unit start/stop input voltages;\n     Freq -- in Hz, sets switching frequency as one of values of 250K, 350K, 425K, 500K, 575K, 650K, 750K, 1000K. FREQ_CFG pin needs to float (or short to VDD25), to make the value be in effect;\n     PHs_0 & PHs_1 -- in degree,  set phase angle related to SYNC signal. Certain combinations are restricted as in datasheet. FREQ_CFG pin needs to float (or short to VDD25), to make the value be in effect;\n     Ton0_delay & Ton0_rise; Ton1_delay & Ton1_rise -- in sec, set delay and soft-start timers for channel0 and channel1. Initialization time is not modeled;\n     Toff0_delay & Toff0_fall; Toff1_delay & Toff1_fall -- in sec, set delay and soft-off timers for channel0 and channel1;\n     Vout_0 & Vout_1 -- in volt, set output voltages respectively; Vout0_range & Vout1_range -- set maximum output range, with value 0 for 4.096V (CH0) and 5.5V (CH1); value 1 for 2.75V\n     Ilim0_range & Ilim1_range -- set maximum sensed peak current range, with value 0 for low 50mV, and 1 for high 75mV;\n     OC_limit0 & OC_limit1 -- set ratio of peak current limit to the maximum value defined by Ilimit_range. It must be one of values: 0.5, 0.572, 0.642, 0.714, 0.786, 0.858, 0.928, 1;\n     Mode_II -- sets light load operation mode: 0 for discontinuous, 1 for Burst, 2 for forced continuous;\n     Fault_response -- sets the response mode of the unit to occuring faults: 0 for ignore, 1 for latch up, 2 for Hiccup after Retry_delay time;\n     Retry_delay -- in sec, sets the timer before the unit turns on after a fault;
TEXT -504 -832 Bottom 2 ;LTM4677 - Dual 18A or Single 36A µModule Regulator with Digital Power System Management\nHigh Current, Parallel µModule Buck Regulators with Power System Management\nInput: 5.75V to 16V     Output: 1V @ 72A
TEXT -344 1312 Left 2 ;Notes: \n  If the simulation model is not found please update with the "Sync Release" command from the "Tools" menu.\n  It remains the customer's responsibility to verify proper and reliable operation in the actual application.\n  Component substitution and printed circuit board layout may significantly affect circuit performance or reliability.\n  Contact your local sales representative for assistance. This circuit is distributed to customers only for use with LTC parts.\n  Copyright © 2016 Linear Technology Inc.  All rights reserved.
