Version 4
SHEET 1 1988 1080
WIRE -528 -576 -640 -576
WIRE -160 -576 -528 -576
WIRE -640 -560 -640 -576
WIRE -64 -560 -432 -560
WIRE 256 -560 -64 -560
WIRE -528 -544 -528 -576
WIRE -352 -512 -368 -512
WIRE -256 -512 -272 -512
WIRE -256 -464 -256 -512
WIRE -160 -464 -160 -576
WIRE -64 -464 -64 -560
WIRE -640 -448 -640 -480
WIRE -528 -448 -528 -480
WIRE -432 -416 -432 -560
WIRE -432 -304 -432 -336
WIRE -352 -304 -432 -304
WIRE 256 -304 256 -560
WIRE 256 -304 224 -304
WIRE 256 -144 -384 -144
WIRE -384 -112 -384 -144
WIRE -352 -112 -384 -112
WIRE 256 -112 256 -144
WIRE 256 -112 224 -112
WIRE 608 -112 256 -112
WIRE 832 -112 608 -112
WIRE 256 -96 256 -112
WIRE 832 -96 832 -112
WIRE 832 -96 752 -96
WIRE 608 -80 608 -112
WIRE 832 -80 832 -96
WIRE 480 -16 224 -16
WIRE 608 16 608 -16
WIRE 832 16 832 0
WIRE 832 16 784 16
WIRE 832 32 832 16
WIRE 256 48 256 -32
WIRE 256 48 -384 48
WIRE -384 80 -384 48
WIRE -352 80 -384 80
WIRE 256 80 256 48
WIRE 256 80 224 80
WIRE 272 80 256 80
WIRE 368 80 352 80
WIRE 752 96 752 -96
WIRE 752 96 496 96
WIRE 784 128 784 16
WIRE 784 128 512 128
WIRE 256 144 -384 144
WIRE -384 176 -384 144
WIRE -352 176 -384 176
WIRE 256 176 256 144
WIRE 256 176 224 176
WIRE 272 176 256 176
WIRE 352 176 336 176
WIRE 448 176 432 176
WIRE 256 240 -384 240
WIRE -384 272 -384 240
WIRE -352 272 -384 272
WIRE 256 272 256 240
WIRE 256 272 224 272
WIRE 272 272 256 272
WIRE 352 272 336 272
WIRE -352 368 -384 368
WIRE -256 448 -256 432
WIRE -160 448 -160 432
WIRE 128 448 128 432
WIRE 480 448 480 -16
WIRE 480 448 128 448
WIRE 32 464 32 432
WIRE 496 464 496 96
WIRE 496 464 32 464
WIRE -64 480 -64 432
WIRE 512 480 512 128
WIRE 512 480 -64 480
FLAG -640 -448 0
FLAG -640 -576 IN
FLAG 608 16 0
FLAG 832 -112 OUT
FLAG -256 448 0
FLAG -528 -448 0
FLAG 832 32 0
FLAG 352 272 0
FLAG 368 80 0
FLAG -368 -512 0
FLAG -160 448 0
FLAG -384 368 0
FLAG 448 176 0
SYMBOL VOLTAGE -640 -576 R0
WINDOW 3 27 94 Left 2
WINDOW 123 0 0 Left 2
WINDOW 39 0 0 Left 2
SYMATTR Value 12
SYMATTR InstName V1
SYMBOL cap -544 -544 R0
WINDOW 40 26 60 Left 2
WINDOW 3 38 32 Left 2
SYMATTR SpiceLine2 x4
SYMATTR Value 22µ
SYMATTR InstName C3
SYMATTR SpiceLine V=35 Rser=5m
SYMBOL cap 272 288 R270
WINDOW 0 32 32 VTop 2
WINDOW 3 0 32 VBottom 2
SYMATTR InstName C4
SYMATTR Value .001µ
SYMBOL res 256 96 R270
WINDOW 0 32 56 VTop 2
WINDOW 3 0 56 VBottom 2
SYMATTR InstName R2
SYMATTR Value 90.9K
SYMBOL res -256 -528 R90
WINDOW 0 0 56 VBottom 2
WINDOW 3 32 56 VTop 2
SYMATTR InstName R3
SYMATTR Value 100K
SYMBOL res -448 -432 R0
SYMATTR InstName R4
SYMATTR Value 10K
SYMBOL current 832 -80 R0
WINDOW 123 0 0 Left 2
WINDOW 39 0 0 Left 2
SYMATTR InstName I1
SYMATTR Value pulse(0 9 .4m 1u 1u .1m .2m)
SYMBOL cap 592 -80 R0
WINDOW 3 38 33 Left 2
WINDOW 40 28 58 Left 2
SYMATTR Value 220µ
SYMATTR SpiceLine2 x5
SYMATTR InstName C1
SYMATTR SpiceLine Rser=4m Lser=0.8n
SYMBOL LTM4630-1 -64 -16 R0
SYMATTR InstName U1
SYMBOL cap 240 -96 R0
SYMATTR InstName C5
SYMATTR Value 47p
SYMBOL cap 272 192 R270
WINDOW 0 32 32 VTop 2
WINDOW 3 0 32 VBottom 2
SYMATTR InstName C2
SYMATTR Value 3.3n
SYMBOL res 336 192 R270
WINDOW 0 32 56 VTop 2
WINDOW 3 0 56 VBottom 2
SYMATTR InstName R1
SYMATTR Value 4.02K
TEXT 552 288 Left 2 !.tran 750u startup
TEXT -640 472 Left 2 ;Note:\n  Smaller values are used for TK/SS capacitors to reduce simulation time. See datasheet for typical values.\n  If the simulation model is not found please update with the "Sync Release" command from the "Tools" menu.\n  It remains the customer's responsibility to verify proper and reliable operation in the actual application.\n  Component substitution and printed circuit board layout may significantly affect circuit performance or reliability\n  Contact your local sales representative for assistance. This circuit is distributed to customers only for use with LTC parts\n  Copyright © 2015 Linear Technology Inc. All rights reserved.
TEXT -64 -584 Bottom 2 ;LTM4630-1 - Dual 18A or Single 36A DC/DC µModule Regulator with ±0.8% DC and ±3% Transient Accuracy\nHigh Efficiency Single 36A Step-Down Regulator\nInput : 4.5V to 15V     Outputs: 1V @ 36A
