Version 4
SHEET 1 1144 900
WIRE -1408 -1040 -1408 -1056
WIRE -1296 -1040 -1296 -1056
WIRE -1200 -1040 -1200 -1056
WIRE -1104 -1040 -1104 -1056
WIRE -1008 -1040 -1008 -1056
WIRE -1872 -960 -1984 -960
WIRE -1776 -960 -1872 -960
WIRE -1200 -960 -1200 -976
WIRE -1200 -960 -1776 -960
WIRE -1104 -960 -1104 -976
WIRE -1104 -960 -1200 -960
WIRE -1008 -960 -1008 -976
WIRE -1008 -960 -1104 -960
WIRE -832 -960 -1008 -960
WIRE -1984 -944 -1984 -960
WIRE -1872 -944 -1872 -960
WIRE -1776 -944 -1776 -960
WIRE -832 -944 -832 -960
WIRE -1600 -896 -1680 -896
WIRE -1520 -896 -1600 -896
WIRE -1408 -896 -1408 -976
WIRE -1408 -896 -1520 -896
WIRE -1392 -896 -1408 -896
WIRE -1296 -896 -1296 -976
WIRE -1296 -896 -1312 -896
WIRE -1680 -880 -1680 -896
WIRE -1984 -848 -1984 -864
WIRE -1872 -848 -1872 -880
WIRE -1408 -832 -1408 -896
WIRE -912 -832 -1408 -832
WIRE -912 -816 -912 -832
WIRE -1520 -800 -1520 -896
WIRE -1408 -800 -1408 -832
WIRE -1296 -800 -1296 -896
WIRE -1200 -800 -1200 -960
WIRE -1104 -800 -1104 -960
WIRE -1008 -800 -1008 -960
WIRE -1600 -720 -1600 -896
WIRE -1584 -720 -1600 -720
WIRE -1776 -640 -1776 -864
WIRE -1584 -640 -1776 -640
WIRE -832 -640 -832 -864
WIRE -832 -640 -944 -640
WIRE -1680 -544 -1680 -800
WIRE -1584 -544 -1680 -544
WIRE -912 -544 -912 -736
WIRE -912 -544 -944 -544
WIRE -1904 -352 -2032 -352
WIRE -1792 -352 -1904 -352
WIRE -1696 -352 -1792 -352
WIRE -1616 -352 -1696 -352
WIRE -1584 -352 -1616 -352
WIRE -880 -352 -944 -352
WIRE -784 -352 -880 -352
WIRE -688 -352 -784 -352
WIRE -592 -352 -688 -352
WIRE -2032 -336 -2032 -352
WIRE -1904 -336 -1904 -352
WIRE -1792 -336 -1792 -352
WIRE -1696 -336 -1696 -352
WIRE -880 -336 -880 -352
WIRE -784 -336 -784 -352
WIRE -688 -336 -688 -352
WIRE -592 -336 -592 -352
WIRE -1616 -256 -1616 -352
WIRE -1584 -256 -1616 -256
WIRE -2032 -240 -2032 -256
WIRE -1904 -240 -1904 -272
WIRE -1792 -240 -1792 -272
WIRE -784 -240 -784 -272
WIRE -688 -240 -688 -272
WIRE -592 -240 -592 -256
WIRE -1696 -160 -1696 -272
WIRE -1584 -160 -1696 -160
WIRE -880 -160 -880 -272
WIRE -880 -160 -944 -160
WIRE -1696 -144 -1696 -160
WIRE -880 -144 -880 -160
WIRE -1584 -64 -1600 -64
WIRE -928 -64 -944 -64
WIRE -1696 -48 -1696 -64
WIRE -880 -48 -880 -64
WIRE -1664 32 -1680 32
WIRE -1584 32 -1600 32
WIRE -928 32 -944 32
WIRE -848 32 -864 32
WIRE -1504 144 -1504 128
WIRE -1392 144 -1392 128
WIRE -1280 144 -1280 128
WIRE -1168 144 -1168 128
WIRE -1040 144 -1040 128
WIRE -1168 240 -1168 224
FLAG -1504 144 0
FLAG -1296 -1056 0
FLAG -1168 240 0
FLAG -1984 -848 0
FLAG -1984 -960 IN
FLAG -880 -48 0
FLAG -848 32 0
FLAG -592 -240 0
FLAG -592 -352 VOUT2
FLAG -1392 144 0
FLAG -1280 144 0
FLAG -2032 -240 0
FLAG -1792 -240 0
FLAG -2032 -352 VOUT1
FLAG -1680 32 0
FLAG -1696 -48 0
FLAG -1408 -1056 0
FLAG -1872 -848 0
FLAG -1104 -1056 0
FLAG -1008 -1056 0
FLAG -1200 -1056 0
FLAG -1904 -240 0
FLAG -784 -240 0
FLAG -688 -240 0
FLAG -1040 144 0
SYMBOL voltage -1984 -960 M0
WINDOW 0 -68 33 Left 2
WINDOW 3 -66 82 Left 2
WINDOW 123 0 0 Left 2
WINDOW 39 0 0 Left 2
SYMATTR InstName V1
SYMATTR Value 12
SYMBOL res -896 -160 R0
WINDOW 0 44 39 Left 2
WINDOW 3 41 73 Left 2
SYMATTR InstName R1
SYMATTR Value 60.4K
SYMBOL cap -928 48 R270
WINDOW 0 32 32 VTop 2
WINDOW 3 0 32 VBottom 2
SYMATTR InstName C1
SYMATTR Value .001µ
SYMBOL res -848 -960 R0
SYMATTR InstName R2
SYMATTR Value 255K
SYMBOL res -1792 -960 R0
WINDOW 0 39 36 Left 2
SYMATTR InstName R3
SYMATTR Value 255K
SYMBOL res -1296 -912 R90
WINDOW 0 -1 49 VBottom 2
WINDOW 3 34 53 VTop 2
SYMATTR InstName R4
SYMATTR Value 2.2
SYMBOL res -1184 128 R0
SYMATTR InstName R5
SYMATTR Value 49.9K
SYMBOL cap -1808 -336 R0
WINDOW 3 22 56 Left 2
WINDOW 0 27 9 Left 2
SYMATTR Value 47µ
SYMATTR InstName C2
SYMATTR SpiceLine V=10 Rser=3m
SYMBOL cap -1600 16 R90
WINDOW 0 0 32 VBottom 2
WINDOW 3 32 32 VTop 2
SYMATTR InstName C3
SYMATTR Value .001µ
SYMBOL res -1712 -160 R0
SYMATTR InstName R6
SYMATTR Value 30.1K
SYMBOL LTM4642 -1264 -336 R0
SYMATTR InstName U1
SYMBOL cap -1712 -336 R0
SYMATTR InstName C4
SYMATTR Value 220p
SYMBOL cap -864 -336 M0
WINDOW 0 -28 9 Left 2
WINDOW 3 -50 60 Left 2
SYMATTR InstName C5
SYMATTR Value 220p
SYMBOL cap -1312 -976 M180
WINDOW 0 24 56 Left 2
WINDOW 3 24 8 Left 2
SYMATTR InstName C6
SYMATTR Value 4.7µ
SYMATTR SpiceLine V=10
SYMBOL cap -1424 -976 M180
WINDOW 0 24 56 Left 2
WINDOW 3 24 8 Left 2
SYMATTR InstName C7
SYMATTR Value 4.7µ
SYMATTR SpiceLine V=10
SYMBOL cap -1120 -976 M180
WINDOW 0 24 56 Left 2
WINDOW 3 24 8 Left 2
SYMATTR InstName C8
SYMATTR Value 22µ
SYMATTR SpiceLine V=25
SYMBOL cap -1024 -976 M180
WINDOW 0 24 56 Left 2
WINDOW 3 24 8 Left 2
SYMATTR InstName C9
SYMATTR Value 22µ
SYMATTR SpiceLine V=25
SYMBOL cap -1216 -976 M180
WINDOW 0 24 56 Left 2
WINDOW 3 24 8 Left 2
SYMATTR InstName C10
SYMATTR Value 1µ
SYMATTR SpiceLine V=25
SYMBOL res -1696 -896 R0
SYMATTR InstName R7
SYMATTR Value 10K
SYMBOL res -928 -832 R0
WINDOW 0 38 43 Left 2
SYMATTR InstName R8
SYMATTR Value 10K
SYMBOL cap -800 -336 R0
WINDOW 0 21 8 Left 2
SYMATTR InstName C11
SYMATTR Value 22µ
SYMATTR SpiceLine V=6.3 Rser=3m
SYMBOL polcap -1888 -944 R0
WINDOW 0 27 15 Left 2
WINDOW 3 26 63 Left 2
SYMATTR InstName C12
SYMATTR Value 100µ
SYMATTR SpiceLine V=25 Rser=24m
SYMBOL polcap -704 -336 R0
SYMATTR InstName C13
SYMATTR Value 150µ
SYMATTR SpiceLine V=4 Rser=7m
SYMBOL polcap -1920 -336 R0
SYMATTR InstName C14
SYMATTR Value 150µ
SYMATTR SpiceLine V=4 Rser=7m
SYMBOL res -2048 -352 R0
SYMATTR InstName Rload1
SYMATTR Value 1.8
SYMBOL res -608 -352 R0
WINDOW 0 45 40 Left 2
WINDOW 3 43 69 Left 2
SYMATTR InstName Rload2
SYMATTR Value 1.2
TEXT -784 152 Left 2 !.tran 1.0m startup
TEXT -1960 264 Left 2 ;Notes:\n  If the simulation model is not found please update with the "Sync Release" command from the "Tools" menu.\n  It remains the customer's responsibility to verify proper and reliable operation in the actual application.\n  Component substitution and printed circuit board layout may significantly affect circuit performance or reliability.\n  Contact your local sales representative for assistance. This circuit is distributed to customers only for use with LTC parts.\n  Copyright © 2016 Linear Technology Inc.  All rights reserved.
TEXT -1344 -1088 Bottom 2 ;LTM4642 - 20Vin, Dual 4A or Single 8A DC/DC Step-Down µModule Regulator\nWide Input Voltage, High Efficiency, Dual Buck Regulator\nInput: 4.5V to 20V     Output: 1.8V @ 4A, 1.2V @ 4A, Fsw=800kHz
