Version 4
SHEET 1 1344 680
WIRE 448 -16 256 -16
WIRE 256 0 256 -16
WIRE -112 64 -208 64
WIRE -32 64 -112 64
WIRE 64 64 -32 64
WIRE 80 64 64 64
WIRE 448 64 448 -16
WIRE 448 64 432 64
WIRE -208 80 -208 64
WIRE -112 80 -112 64
WIRE -32 80 -32 64
WIRE 64 144 64 64
WIRE 80 144 64 144
WIRE -208 176 -208 160
WIRE -112 176 -112 144
WIRE -32 176 -32 144
WIRE 64 224 64 144
WIRE 80 224 64 224
WIRE 496 224 432 224
WIRE 592 224 496 224
WIRE 672 224 592 224
WIRE 752 224 672 224
WIRE 864 224 752 224
WIRE 496 240 496 224
WIRE 592 240 592 224
WIRE 672 240 672 224
WIRE 752 240 752 224
WIRE 864 240 864 224
WIRE 496 304 432 304
WIRE 496 320 496 304
WIRE 592 336 592 304
WIRE 672 336 672 304
WIRE 752 336 752 304
WIRE 864 336 864 320
WIRE 0 384 -16 384
WIRE 80 384 64 384
WIRE 496 416 496 400
WIRE 192 464 192 448
WIRE 320 464 320 448
FLAG 192 464 0
FLAG 320 464 0
FLAG -208 176 0
FLAG -208 64 IN
FLAG -16 384 0
FLAG 496 416 0
FLAG 864 336 0
FLAG 592 336 0
FLAG 864 224 OUT
FLAG -112 176 0
FLAG -32 176 0
FLAG 672 336 0
FLAG 752 336 0
SYMBOL LTM4624 256 224 R0
SYMATTR InstName U1
SYMBOL voltage -208 64 R0
SYMATTR InstName V1
SYMATTR Value 12
SYMBOL cap 64 368 R90
WINDOW 0 0 32 VBottom 2
WINDOW 3 32 32 VTop 2
SYMATTR InstName C1
SYMATTR Value .005µ
SYMBOL res 480 304 R0
SYMATTR InstName R1
SYMATTR Value 40.2K
SYMBOL cap 576 240 R0
SYMATTR InstName C2
SYMATTR Value 100µ
SYMATTR SpiceLine V=6.3 Irms=0 Rser=0.002 Lser=0 mfg="TDK" pn="C4532X5ROJ47@M" type="X5R"
SYMBOL res 848 224 R0
SYMATTR InstName Rload
SYMATTR Value .375
SYMBOL polcap -128 80 R0
SYMATTR InstName C3
SYMATTR Value 10µ
SYMATTR SpiceLine Rser=2m
SYMBOL cap -48 80 R0
WINDOW 123 26 69 Left 2
WINDOW 3 38 36 Left 2
SYMATTR Value2 x2
SYMATTR Value 22µ
SYMATTR InstName C4
SYMATTR SpiceLine V=16 Irms=0 Rser=2m Lser=0
SYMBOL cap 480 240 R0
SYMATTR InstName C5
SYMATTR Value 100p
SYMBOL cap 656 240 R0
SYMATTR InstName C6
SYMATTR Value 47µ
SYMATTR SpiceLine V=6.3 Irms=0 Rser=0.002 Lser=0 mfg="TDK" pn="C4532X5ROJ47@M" type="X5R"
SYMBOL cap 736 240 R0
SYMATTR InstName C7
SYMATTR Value 22µ
SYMATTR SpiceLine V=6.3 Irms=0 Rser=0.002 Lser=0
TEXT 624 440 Left 2 !.tran 2m startup
TEXT 272 -24 Bottom 2 ;LTM4624 - 14Vin, 4A Step-Down DC/DC µModule Regulator \n4A Buck µModule Regulator\nInput: 4V to 14V     Output: 1.5V @ 4A
TEXT -344 480 Left 2 ;Note:\n  If the simulation model is not found please update with the "Sync Release" command from the "Tools" menu.\n  It remains the customer's responsibility to verify proper and reliable operation in the actual application.\n  Component substitution and printed circuit board layout may significantly affect circuit performance or reliability\n  Contact your local sales representative for assistance. This circuit is distributed to customers only for use with LTC parts\n  Copyright © 2014 Linear Technology Inc. All rights reserved.
