Version 4
SHEET 1 2040 1256
WIRE -528 -576 -640 -576
WIRE -160 -576 -528 -576
WIRE -640 -560 -640 -576
WIRE -528 -560 -528 -576
WIRE -64 -560 -432 -560
WIRE 256 -560 -64 -560
WIRE -352 -512 -368 -512
WIRE -256 -512 -272 -512
WIRE -640 -464 -640 -480
WIRE -528 -464 -528 -496
WIRE -432 -464 -432 -560
WIRE -256 -464 -256 -512
WIRE -160 -464 -160 -576
WIRE -64 -464 -64 -560
WIRE -432 -304 -432 -384
WIRE -352 -304 -432 -304
WIRE 256 -304 256 -560
WIRE 256 -304 224 -304
WIRE -352 -208 -368 -208
WIRE 240 -208 224 -208
WIRE -352 -112 -512 -112
WIRE 480 -112 224 -112
WIRE 592 -112 480 -112
WIRE 624 -112 592 -112
WIRE 736 -112 624 -112
WIRE 912 -112 736 -112
WIRE 480 -96 480 -112
WIRE 624 -96 624 -112
WIRE 736 -96 736 -112
WIRE 912 -96 912 -112
WIRE 912 -96 832 -96
WIRE 912 -80 912 -96
WIRE 256 -16 224 -16
WIRE 624 0 624 -32
WIRE 736 0 736 -32
WIRE 912 16 912 0
WIRE 912 16 864 16
WIRE 912 32 912 16
WIRE -352 80 -480 80
WIRE 480 80 480 -32
WIRE 480 80 224 80
WIRE -352 176 -448 176
WIRE 368 176 224 176
WIRE -352 272 -416 272
WIRE 272 272 224 272
WIRE -352 368 -384 368
WIRE -256 448 -256 432
WIRE -160 448 -160 432
WIRE 128 464 128 432
WIRE 256 464 256 -16
WIRE 256 464 128 464
WIRE 32 496 32 432
WIRE 832 496 832 -96
WIRE 832 496 32 496
WIRE -64 528 -64 432
WIRE 864 528 864 16
WIRE 864 528 -64 528
WIRE -416 560 -416 272
WIRE 272 560 272 272
WIRE 272 560 -416 560
WIRE 272 576 272 560
WIRE 272 656 272 640
WIRE -448 688 -448 176
WIRE 368 688 368 176
WIRE 368 688 -448 688
WIRE 368 704 368 688
WIRE 368 800 368 784
WIRE 368 880 368 864
WIRE -480 912 -480 80
WIRE 480 912 480 80
WIRE 480 912 -480 912
WIRE 480 928 480 912
WIRE 480 1024 480 1008
WIRE -512 1056 -512 -112
WIRE 592 1056 592 -112
WIRE 592 1056 -512 1056
FLAG -640 -464 0
FLAG -640 -576 IN
FLAG 736 0 0
FLAG 912 -112 OUT
FLAG -256 448 0
FLAG -528 -464 0
FLAG 912 32 0
FLAG 272 656 0
FLAG 480 1024 0
FLAG -368 -512 0
FLAG -160 448 0
FLAG -384 368 0
FLAG 368 880 0
FLAG 624 0 0
SYMBOL VOLTAGE -640 -576 R0
WINDOW 3 27 94 Left 2
WINDOW 123 0 0 Left 2
WINDOW 39 0 0 Left 2
SYMATTR Value 12
SYMATTR InstName V1
SYMBOL cap -544 -560 R0
WINDOW 40 26 60 Left 2
WINDOW 3 38 32 Left 2
SYMATTR SpiceLine2 x4
SYMATTR Value 22µ
SYMATTR InstName C3
SYMATTR SpiceLine V=35 Rser=5m
SYMBOL cap 256 576 R0
SYMATTR InstName C4
SYMATTR Value .001µ
SYMBOL res 464 912 R0
SYMATTR InstName R2
SYMATTR Value 90.9K
SYMBOL res -256 -528 R90
WINDOW 0 0 56 VBottom 2
WINDOW 3 32 56 VTop 2
SYMATTR InstName R3
SYMATTR Value 121K
SYMBOL res -448 -480 R0
SYMATTR InstName R4
SYMATTR Value 10K
SYMBOL current 912 -80 R0
WINDOW 123 0 0 Left 2
WINDOW 39 0 0 Left 2
SYMATTR InstName I1
SYMATTR Value PULSE(0 12.5 .4m 1u 1u .1m .2m)
SYMBOL cap 720 -96 R0
WINDOW 3 38 33 Left 2
WINDOW 40 28 58 Left 2
SYMATTR Value 330µ
SYMATTR SpiceLine2 x6
SYMATTR InstName C1
SYMATTR SpiceLine Rser=2m Lser=0.4n
SYMBOL cap 464 -96 R0
SYMATTR InstName C5
SYMATTR Value 220p
SYMBOL cap 352 800 R0
SYMATTR InstName C2
SYMATTR Value 4700p
SYMBOL res 352 688 R0
SYMATTR InstName R1
SYMATTR Value 2.55K
SYMBOL PowerProducts\\LTM4650-1 -64 -16 R0
SYMATTR InstName U1
SYMBOL cap 608 -96 R0
WINDOW 3 38 33 Left 2
WINDOW 40 28 58 Left 2
SYMATTR Value 100µ
SYMATTR SpiceLine2 x8
SYMATTR InstName C6
SYMATTR SpiceLine Rser=2m Lser=0.8n
TEXT 632 1024 Left 2 !.tran 800u startup
TEXT -432 1072 Left 2 ;Note:\n  Smaller values are used for TK/SS capacitors to reduce simulation time. See datasheet for typical values.\n  If the simulation model is not found please update with the "Sync Release" command from the "Tools" menu.\n  It remains the customer's responsibility to verify proper and reliable operation in the actual application.\n  Component substitution and printed circuit board layout may significantly affect circuit performance or reliability\n  Contact your local sales representative for assistance. This circuit is distributed to customers only for use with LTC parts\n  Copyright © 2016 Linear Technology Inc. All rights reserved.
TEXT 168 -576 Bottom 2 ;LTM4650-1 - Dual 25A or Single 50A DC/DC µModule Regulator with ±0.8% DC and ±3% Transient Accuracy\nHigh Efficiency Single 50A Step-Down Regulator\nInput : 4.5V to 15V     Outputs: 1V @ 50A
