Version 4
SHEET 1 1792 904
WIRE 16 48 -80 48
WIRE 112 48 16 48
WIRE 208 48 112 48
WIRE 496 48 208 48
WIRE -80 64 -80 48
WIRE 16 64 16 48
WIRE 112 64 112 48
WIRE 208 80 208 48
WIRE 496 80 496 48
WIRE 752 128 688 128
WIRE -80 160 -80 144
WIRE 16 160 16 128
WIRE 112 160 112 128
WIRE 208 192 208 160
WIRE 304 192 208 192
WIRE 752 192 752 128
WIRE 752 192 688 192
WIRE 880 192 752 192
WIRE 960 192 880 192
WIRE 1088 192 960 192
WIRE 880 208 880 192
WIRE 960 208 960 192
WIRE 1088 208 1088 192
WIRE 304 256 288 256
WIRE 752 256 688 256
WIRE 752 272 752 256
WIRE 880 304 880 272
WIRE 960 304 960 272
WIRE 1088 304 1088 288
WIRE 304 320 288 320
WIRE 752 368 752 352
WIRE 288 384 288 320
WIRE 304 384 288 384
WIRE 704 448 688 448
WIRE 784 448 768 448
WIRE 416 592 416 576
WIRE 576 592 576 576
FLAG 416 592 0
FLAG 576 592 0
FLAG 752 368 0
FLAG -80 48 IN
FLAG 1088 192 OUT
FLAG 112 160 0
FLAG -80 160 0
FLAG 880 304 0
FLAG 960 304 0
FLAG 1088 304 0
FLAG 16 160 0
FLAG 784 448 0
SYMBOL voltage -80 48 R0
WINDOW 123 0 0 Left 0
WINDOW 39 12 125 Left 0
SYMATTR InstName V1
SYMATTR Value 12
SYMBOL res 736 256 R0
SYMATTR InstName R1
SYMATTR Value 40.2K
SYMBOL cap 864 208 R0
SYMATTR InstName C1
SYMATTR Value 22µ
SYMATTR SpiceLine Rser=5m
SYMBOL cap 96 64 R0
SYMATTR InstName C2
SYMATTR Value 47µ
SYMBOL cap 944 208 R0
WINDOW 40 33 74 Left 0
WINDOW 3 35 49 Left 0
SYMATTR SpiceLine2 x2
SYMATTR Value 100µ
SYMATTR InstName C3
SYMATTR SpiceLine Rser=3m
SYMBOL polcap 0 64 R0
SYMATTR InstName C4
SYMATTR Value 150µ
SYMATTR SpiceLine Rser=9m
SYMBOL res 192 64 R0
SYMATTR InstName R2
SYMATTR Value 100K
SYMBOL cap 736 192 R0
WINDOW 0 37 21 Left 0
WINDOW 3 34 57 Left 0
SYMATTR InstName C5
SYMATTR Value 100p
SYMBOL cap 704 464 R270
WINDOW 0 32 32 VTop 0
WINDOW 3 0 32 VBottom 0
SYMATTR InstName C6
SYMATTR Value 2200p
SYMBOL res 1072 192 R0
SYMATTR InstName Rload
SYMATTR Value .125
SYMBOL PowerProducts\\LTM4601A-1 496 336 R0
SYMATTR InstName U1
TEXT 888 512 Left 0 !.tran 1.2m startup
TEXT 528 32 Bottom 0 ;LTM4601A-1 - 12A, High Efficiency Step-Down DC/DC µModule\nInput: 12V     Output: 1.5V @ 12A
TEXT -96 600 Left 0 ;Note:\n  If the simulation model is not found please update with the "Sync Release" command from the "Tools" menu.\n  It remains the customer's responsibility to verify proper and reliable operation in the actual application.\n  Component substitution and printed circuit board layout may significantly affect circuit performance or reliability\n  Contact your local sales representative for assistance. This circuit is distributed to customers only for use with LTC parts\n  Copyright © 2010 Linear Technology Inc. All rights reserved.
