Version 4
SHEET 1 1232 1020
WIRE -528 -352 -640 -352
WIRE -432 -352 -528 -352
WIRE -336 -352 -432 -352
WIRE -192 -352 -336 -352
WIRE 80 -352 -192 -352
WIRE 96 -352 80 -352
WIRE 368 -352 192 -352
WIRE -640 -336 -640 -352
WIRE -528 -336 -528 -352
WIRE 272 -304 176 -304
WIRE 80 -288 80 -352
WIRE 176 -288 176 -304
WIRE 272 -288 272 -304
WIRE 368 -288 368 -352
WIRE -640 -240 -640 -256
WIRE -528 -240 -528 -272
WIRE 688 -224 432 -224
WIRE 736 -224 688 -224
WIRE 784 -224 736 -224
WIRE 896 -224 784 -224
WIRE 784 -208 784 -224
WIRE 896 -208 896 -224
WIRE 784 -112 784 -144
WIRE 896 -112 896 -128
WIRE 16 -32 -16 -32
WIRE -432 48 -432 -352
WIRE -16 64 -16 -32
WIRE 16 64 -16 64
WIRE 480 64 432 64
WIRE 576 64 480 64
WIRE 688 64 688 -224
WIRE 688 64 656 64
WIRE 480 80 480 64
WIRE -336 144 -336 -352
WIRE -80 160 -96 160
WIRE 16 160 0 160
WIRE 480 160 432 160
WIRE 576 160 480 160
WIRE 688 160 656 160
WIRE -336 256 -336 224
WIRE 16 256 -336 256
WIRE 736 272 736 -224
WIRE -336 336 -336 256
WIRE -192 352 -192 -352
WIRE 688 352 432 352
WIRE 736 384 736 368
WIRE -336 448 -336 416
WIRE -240 448 -336 448
WIRE -192 448 -192 432
WIRE -96 448 -96 160
WIRE -96 448 -192 448
WIRE 16 448 -96 448
WIRE 448 448 432 448
WIRE -192 480 -192 448
WIRE -336 496 -336 448
WIRE 16 544 -48 544
WIRE 448 544 432 544
WIRE -192 576 -192 560
WIRE -336 608 -336 576
WIRE -240 608 -240 448
WIRE -48 608 -48 544
WIRE -48 608 -240 608
WIRE -432 640 -432 128
WIRE 16 640 -432 640
WIRE 448 640 432 640
WIRE 224 720 224 704
WIRE 64 736 64 704
WIRE 304 736 304 704
WIRE 384 736 384 704
WIRE 224 800 224 784
FLAG -640 -240 0
FLAG 784 -112 0
FLAG 896 -112 0
FLAG 896 -224 OUT
FLAG -640 -352 IN
FLAG 688 160 0
FLAG 736 384 0
FLAG 448 448 0
FLAG 384 736 0
FLAG 304 736 0
FLAG 64 736 0
FLAG 224 800 0
FLAG -192 576 0
FLAG -336 608 0
FLAG -528 -240 0
SYMBOL PowerProducts\\LTM4641 224 208 R0
SYMATTR InstName U1
SYMBOL voltage -640 -352 R0
WINDOW 123 0 0 Left 2
WINDOW 39 0 0 Left 2
SYMATTR InstName V1
SYMATTR Value 12
SYMBOL nmos 96 -304 R270
WINDOW 0 53 52 VTop 2
WINDOW 3 24 92 VRight 2
SYMATTR InstName Q1
SYMATTR Value IRFH6200
SYMBOL cap 768 -208 R0
WINDOW 123 31 64 Left 2
WINDOW 3 37 34 Left 2
SYMATTR Value2 x3
SYMATTR Value 150µ
SYMATTR InstName C1
SYMATTR SpiceLine V=6.3 Irms=0 Rser=0.002 Lser=0 mfg="TDK" pn="C575OX5ROJI07M" type="X5R"
SYMBOL res 672 48 R90
WINDOW 0 0 56 VBottom 2
WINDOW 3 32 56 VTop 2
SYMATTR InstName R1
SYMATTR Value 2.49K
SYMBOL res 672 144 R90
WINDOW 0 0 56 VBottom 2
WINDOW 3 32 56 VTop 2
SYMATTR InstName R2
SYMATTR Value 2.49K
SYMBOL nmos 688 272 R0
SYMATTR InstName Q2
SYMATTR Value FDC637AN
SYMBOL cap 208 720 R0
SYMATTR InstName C2
SYMATTR Value 1n
SYMBOL res -448 32 R0
SYMATTR InstName R4
SYMATTR Value 680K
SYMBOL res 880 -224 R0
SYMATTR InstName Rload
SYMATTR Value .1
SYMBOL res -208 336 R0
SYMATTR InstName R5
SYMATTR Value 187K
SYMBOL res -208 464 R0
SYMATTR InstName R6
SYMATTR Value 13K
SYMBOL res -352 128 R0
SYMATTR InstName R7
SYMATTR Value 1.78Meg
SYMBOL res -352 320 R0
SYMATTR InstName R8
SYMATTR Value 3.16K
SYMBOL res -352 480 R0
SYMATTR InstName R9
SYMATTR Value 24.9K
SYMBOL res 16 144 R90
WINDOW 0 0 56 VBottom 2
WINDOW 3 32 56 VTop 2
SYMATTR InstName R3
SYMATTR Value 1Meg
SYMBOL cap -544 -336 R0
SYMATTR InstName C3
SYMATTR Value 100µ
SYMBOL res 464 64 R0
SYMATTR InstName R10
SYMATTR Value 13.7K
TEXT 560 632 Left 2 !.tran 1m startup
TEXT 192 -392 Bottom 2 ;LTM4641 - 38V, 10A DC/DC µModule Regulator with Advanced Input and Load Protection\n10A Step-Down µModule Regulator with Input and Output OVP\nInput: 4.5V to 38V     Output: 1V ±1.5% @ 10A, Fsw = 320kHz
TEXT -448 808 Left 2 ;Note:\n  Small value is used for the TRACK/SS capacitors to reduce simulation time. Typical value should be 3.3nF.\n  If the simulation model is not found please update with the "Sync Release" command from the "Tools" menu.\n  It remains the customer's responsibility to verify proper and reliable operation in the actual application.\n  Component substitution and printed circuit board layout may significantly affect circuit performance or reliability\n  Contact your local sales representative for assistance. This circuit is distributed to customers only for use with LTC parts\n  Copyright © 2012 Linear Technology Inc. All rights reserved.
