Version 4
SHEET 1 1792 1108
WIRE 160 64 64 64
WIRE 256 64 160 64
WIRE 560 64 256 64
WIRE 656 64 560 64
WIRE 896 64 656 64
WIRE 64 80 64 64
WIRE 160 80 160 64
WIRE 256 80 256 64
WIRE 560 80 560 64
WIRE 464 144 336 144
WIRE 64 176 64 160
WIRE 160 176 160 144
WIRE 256 176 256 144
WIRE 464 176 464 144
WIRE 560 176 560 160
WIRE 656 176 656 64
WIRE 336 240 336 144
WIRE 368 240 336 240
WIRE 800 240 752 240
WIRE 944 240 800 240
WIRE 1056 240 944 240
WIRE 1168 240 1056 240
WIRE 944 256 944 240
WIRE 1056 256 1056 240
WIRE 1168 256 1168 240
WIRE 800 272 800 240
WIRE 336 320 336 240
WIRE 368 320 336 320
WIRE 944 352 944 320
WIRE 1056 352 1056 320
WIRE 1168 352 1168 336
WIRE 336 400 336 320
WIRE 368 400 336 400
WIRE 800 400 800 336
WIRE 800 400 752 400
WIRE 800 432 800 400
WIRE 800 560 800 512
WIRE 800 560 752 560
WIRE 800 576 800 560
WIRE 896 624 896 64
WIRE 896 720 896 704
WIRE 896 720 752 720
WIRE 896 736 896 720
WIRE 464 800 464 784
WIRE 656 800 656 784
WIRE 896 832 896 816
FLAG 464 800 0
FLAG 656 800 0
FLAG 800 576 0
FLAG 64 64 IN
FLAG 1168 240 OUT
FLAG 256 176 0
FLAG 64 176 0
FLAG 944 352 0
FLAG 1056 352 0
FLAG 1168 352 0
FLAG 160 176 0
FLAG 896 832 0
SYMBOL voltage 64 64 R0
WINDOW 123 0 0 Left 2
WINDOW 39 12 125 Left 2
SYMATTR InstName V1
SYMATTR Value 5
SYMBOL res 784 416 R0
SYMATTR InstName R1
SYMATTR Value 6.65K
SYMBOL cap 928 256 R0
SYMATTR InstName C1
SYMATTR Value 22µ
SYMATTR SpiceLine Rser=5m
SYMBOL cap 240 80 R0
SYMATTR InstName C2
SYMATTR Value 10µ
SYMBOL cap 1040 256 R0
WINDOW 40 30 61 Left 2
WINDOW 3 41 34 Left 2
SYMATTR SpiceLine2 x2
SYMATTR Value 100µ
SYMATTR InstName C3
SYMATTR SpiceLine Rser=3m
SYMBOL polcap 144 80 R0
SYMATTR InstName C4
SYMATTR Value 150µ
SYMATTR SpiceLine Rser=9m
SYMBOL res 544 64 R0
SYMATTR InstName R2
SYMATTR Value 10K
SYMBOL cap 784 272 R0
WINDOW 0 28 15 Left 2
WINDOW 3 29 55 Left 2
SYMATTR InstName C5
SYMATTR Value 47p
SYMBOL res 1152 240 R0
SYMATTR InstName Rload
SYMATTR Value 0.1875
SYMBOL PowerProducts\\LTM4608A 560 480 R0
SYMATTR InstName U1
SYMBOL res 880 608 R0
SYMATTR InstName R3
SYMATTR Value 50K
SYMBOL res 880 720 R0
SYMATTR InstName R4
SYMATTR Value 50K
TEXT 1056 800 Left 2 !.tran 300u startup
TEXT 560 56 Bottom 2 ;LTM4608A - 8A, Step-Down DC/DC µModule in 15mm×9mm LGA package\nInput: 5V     Output: 1.5V @ 8A
TEXT -24 840 Left 2 ;Note:\n  If the simulation model is not found please update with the "Sync Release" command from the "Tools" menu.\n  It remains the customer's responsibility to verify proper and reliable operation in the actual application.\n  Component substitution and printed circuit board layout may significantly affect circuit performance or reliability\n  Contact your local sales representative for assistance. This circuit is distributed to customers only for use with LTC parts\n  Copyright © 2010 Linear Technology Inc. All rights reserved.
