Version 4
SHEET 1 1956 1204
WIRE -720 -256 -816 -256
WIRE -656 -256 -720 -256
WIRE -576 -256 -656 -256
WIRE -480 -256 -576 -256
WIRE -432 -256 -480 -256
WIRE -320 -256 -352 -256
WIRE -272 -256 -320 -256
WIRE -160 -256 -208 -256
WIRE 0 -256 -160 -256
WIRE 208 -256 0 -256
WIRE -816 -240 -816 -256
WIRE -656 -240 -656 -256
WIRE 0 -240 0 -256
WIRE -480 -208 -480 -256
WIRE -320 -208 -320 -256
WIRE -160 -208 -160 -256
WIRE -656 -160 -656 -176
WIRE -816 -144 -816 -160
WIRE 0 -144 0 -176
WIRE -576 -112 -576 -256
WIRE -560 -112 -576 -112
WIRE -160 -112 -160 -128
WIRE -160 -112 -240 -112
WIRE -160 -96 -160 -112
WIRE 400 -48 -80 -48
WIRE 208 -16 208 -256
WIRE 400 -16 400 -48
WIRE -400 0 -400 -16
WIRE -160 0 -160 -16
WIRE -720 32 -720 -256
WIRE -592 32 -720 32
WIRE -16 32 -592 32
WIRE 96 32 -16 32
WIRE 560 32 512 32
WIRE 608 32 560 32
WIRE 704 32 608 32
WIRE 816 32 704 32
WIRE -720 48 -720 32
WIRE -592 48 -592 32
WIRE 608 48 608 32
WIRE 704 48 704 32
WIRE 816 48 816 32
WIRE -16 128 -16 32
WIRE 0 128 -16 128
WIRE 96 128 80 128
WIRE 528 128 512 128
WIRE -720 144 -720 112
WIRE -592 144 -592 112
WIRE 608 144 608 112
WIRE 704 144 704 112
WIRE 816 144 816 128
WIRE -80 224 -80 -48
WIRE -80 224 -224 224
WIRE -32 224 -80 224
WIRE 96 224 48 224
WIRE 528 224 528 128
WIRE 528 224 512 224
WIRE -32 320 -128 320
WIRE 96 320 -32 320
WIRE 560 320 560 32
WIRE 560 320 512 320
WIRE -128 336 -128 320
WIRE -32 336 -32 320
WIRE 96 416 80 416
WIRE 528 416 512 416
WIRE -128 432 -128 400
WIRE -32 432 -32 416
WIRE 16 512 0 512
WIRE 96 512 80 512
WIRE 544 512 512 512
WIRE 640 512 624 512
WIRE -224 528 -224 224
WIRE -368 608 -384 608
WIRE -16 608 -80 608
WIRE 96 608 -16 608
WIRE 560 608 512 608
WIRE -16 624 -16 608
WIRE -16 704 -16 688
WIRE 96 704 64 704
WIRE 560 704 560 608
WIRE 560 704 512 704
WIRE 560 720 560 704
WIRE -64 736 -80 736
WIRE 240 768 240 752
WIRE 368 768 368 752
WIRE 560 800 560 784
WIRE -224 832 -224 816
FLAG -816 -144 0
FLAG -32 432 0
FLAG 240 768 0
FLAG 368 768 0
FLAG 0 512 0
FLAG 80 416 0
FLAG 640 512 0
FLAG 608 144 0
FLAG 816 144 0
FLAG 528 416 0
FLAG 816 32 OUT
FLAG -816 -256 IN
FLAG 704 144 0
FLAG 560 800 0
FLAG -592 144 0
FLAG -128 432 0
FLAG -720 144 0
FLAG -656 -160 0
FLAG -160 0 0
FLAG 0 -144 0
FLAG -400 0 0
FLAG -224 832 0
FLAG -64 736 0
FLAG 64 704 0
FLAG -16 704 0
SYMBOL voltage -816 -256 R0
WINDOW 123 0 0 Left 2
WINDOW 39 0 0 Left 2
SYMATTR InstName V1
SYMATTR Value 5
SYMBOL res -16 144 R270
WINDOW 0 32 56 VTop 2
WINDOW 3 0 56 VBottom 2
SYMATTR InstName R1
SYMATTR Value 10K
SYMBOL cap 80 496 R90
WINDOW 0 0 32 VBottom 2
WINDOW 3 32 32 VTop 2
SYMATTR InstName C1
SYMATTR Value .001µ
SYMBOL res 528 528 R270
WINDOW 0 32 56 VTop 2
WINDOW 3 0 56 VBottom 2
SYMATTR InstName R3
SYMATTR Value 60.4K
SYMBOL polcap 592 48 R0
WINDOW 3 24 56 Left 2
WINDOW 123 24 84 Left 2
SYMATTR Value 470µ
SYMATTR InstName C3
SYMATTR SpiceLine V=6.3 Irms=6.7 Rser=0.006 Lser=0 mfg="KEMET" pn="T530X477M006ASE006" type="Tantalum"
SYMATTR Description Capacitor
SYMATTR Type cap
SYMBOL res 800 32 R0
SYMATTR InstName Rload
SYMATTR Value 60m
SYMBOL cap 688 48 R0
WINDOW 123 20 56 Left 2
WINDOW 3 35 31 Left 2
SYMATTR Value2 x2
SYMATTR Value 100µ
SYMATTR InstName C4
SYMATTR SpiceLine V=6.3 Irms=0 Rser=0.002 Lser=0 mfg="TDK" pn="C575OX5ROJI07M" type="X5R"
SYMBOL cap -608 48 R0
WINDOW 3 37 33 Left 2
WINDOW 39 22 58 Left 2
SYMATTR Value 22µ
SYMATTR SpiceLine x2
SYMATTR InstName C6
SYMBOL cap -144 336 R0
SYMATTR InstName C7
SYMATTR Value 1.5n
SYMBOL res -48 320 R0
SYMATTR InstName R2
SYMATTR Value 124K
SYMBOL cap 544 720 R0
SYMATTR InstName C8
SYMATTR Value 180p
SYMBOL LTM4639 304 368 R0
SYMATTR InstName U1
SYMBOL cap -736 48 R0
SYMATTR InstName C9
SYMATTR Value 150µ
SYMBOL LT1935 -400 -112 R0
SYMATTR InstName U2
SYMBOL cap -672 -240 R0
SYMATTR InstName C10
SYMATTR Value 4.7µ
SYMBOL ind -448 -240 R270
WINDOW 0 32 56 VTop 2
WINDOW 3 5 56 VBottom 2
SYMATTR InstName L1
SYMATTR Value 2.2µ
SYMBOL schottky -272 -240 R270
WINDOW 0 32 32 VTop 2
WINDOW 3 0 32 VBottom 2
SYMATTR InstName D1
SYMATTR Value CMDSH2-3
SYMATTR Description Diode
SYMATTR Type diode
SYMBOL res -176 -224 R0
SYMATTR InstName R4
SYMATTR Value 29.4K
SYMBOL res -176 -112 R0
SYMATTR InstName R5
SYMATTR Value 10K
SYMBOL cap -16 -240 R0
SYMATTR InstName C11
SYMATTR Value 22µ
SYMBOL LTC2997 -224 736 M0
SYMATTR InstName U3
SYMBOL cap -32 624 R0
SYMATTR InstName C5
SYMATTR Value 470p
SYMBOL res 64 208 R90
WINDOW 0 0 56 VBottom 2
WINDOW 3 32 56 VTop 2
SYMATTR InstName R6
SYMATTR Value 100K
TEXT 664 784 Left 2 !.tran 1m startup
TEXT 104 -296 Bottom 2 ;LTM4639 - Low Vin, 20A Step-Down µModule Regulator\nHigh Efficiency 20A µModule Buck Regulator\nInput: 2.375V to 7V     Output: 1.2V @ 20A, Fsw = 520kHz
TEXT -552 848 Left 2 ;Notes:\n  A smaller TRACK/SS capacitor is being used to reduce simulation time. Typical value should be 0.1µF.\n  More output capacitors may be needed to meet load step and output voltage requirements.\n  If the simulation model is not found please update with the "Sync Release" command from the "Tools" menu.\n  It remains the customer's responsibility to verify proper and reliable operation in the actual application.\n  Component substitution and printed circuit board layout may significantly affect circuit performance or reliability.\n  Contact your local sales representative for assistance. This circuit is distributed to customers only for use with LTC parts.\n  Copyright © 2014 Linear Technology Inc. All rights reserved.
