Version 4
SHEET 1 1456 820
WIRE -128 -64 -224 -64
WIRE -32 -64 -128 -64
WIRE 64 -64 -32 -64
WIRE 352 -64 64 -64
WIRE -224 -48 -224 -64
WIRE -128 -48 -128 -64
WIRE -32 -48 -32 -64
WIRE 64 -48 64 -64
WIRE 352 0 352 -64
WIRE -224 48 -224 32
WIRE -128 48 -128 16
WIRE -32 48 -32 16
WIRE 64 48 64 32
WIRE 144 48 64 48
WIRE 240 48 224 48
WIRE 672 48 592 48
WIRE 784 48 672 48
WIRE 896 48 784 48
WIRE 992 48 896 48
WIRE 672 64 672 48
WIRE 784 64 784 48
WIRE 896 64 896 48
WIRE 992 64 992 48
WIRE 64 128 64 48
WIRE 96 128 64 128
WIRE 240 128 176 128
WIRE 672 128 592 128
WIRE 672 144 672 128
WIRE 784 160 784 128
WIRE 896 160 896 128
WIRE 992 160 992 144
WIRE 64 176 64 128
WIRE 240 208 224 208
WIRE 608 208 592 208
WIRE 672 240 672 224
WIRE 64 256 64 240
WIRE 224 288 224 208
WIRE 240 288 224 288
WIRE 608 288 592 288
WIRE 624 288 608 288
WIRE 608 368 608 288
WIRE 608 368 592 368
WIRE 112 448 96 448
WIRE 240 448 176 448
WIRE 608 448 608 368
WIRE 608 448 592 448
WIRE 160 528 96 528
WIRE 240 528 224 528
WIRE 608 528 592 528
WIRE 704 528 688 528
WIRE 352 592 352 576
WIRE 480 592 480 576
FLAG 352 592 0
FLAG 480 592 0
FLAG 896 160 0
FLAG 992 160 0
FLAG -224 48 0
FLAG 96 528 0
FLAG 992 48 OUT
FLAG -224 -64 IN
FLAG 96 448 0
FLAG 704 528 0
FLAG 624 288 0
FLAG 672 240 0
FLAG -128 48 0
FLAG -32 48 0
FLAG 64 256 0
FLAG 784 160 0
SYMBOL cap 880 64 R0
SYMATTR InstName C1
SYMATTR Value 10µ
SYMATTR SpiceLine Rser=8m
SYMBOL res 48 -64 R0
SYMATTR InstName R1
SYMATTR Value 10K
SYMATTR SpiceLine ""
SYMBOL res 128 32 M90
WINDOW 0 0 56 VBottom 2
WINDOW 3 32 56 VTop 2
SYMATTR InstName R2
SYMATTR Value 51K
SYMBOL cap 224 512 R90
WINDOW 0 0 32 VBottom 2
WINDOW 3 32 32 VTop 2
SYMATTR InstName C2
SYMATTR Value 10µ
SYMBOL voltage -224 -64 R0
WINDOW 123 0 0 Left 2
WINDOW 39 0 0 Left 2
SYMATTR Value2 ""
SYMATTR SpiceLine ""
SYMATTR InstName V1
SYMATTR Value 24
SYMBOL PowerProducts\\LTM4612 416 288 R0
SYMATTR InstName U1
SYMBOL cap 176 432 R90
WINDOW 0 0 32 VBottom 2
WINDOW 3 32 32 VTop 2
SYMATTR InstName C3
SYMATTR Value .0022µ
SYMBOL res 592 544 R270
WINDOW 0 32 56 VTop 2
WINDOW 3 0 56 VBottom 2
SYMATTR InstName R3
SYMATTR Value 392K
SYMBOL res 656 128 R0
SYMATTR InstName R4
SYMATTR Value 5.23K
SYMBOL cap 656 64 R0
WINDOW 3 24 54 Left 2
SYMATTR Value 47p
SYMATTR InstName C4
SYMBOL cap -144 -48 R0
SYMATTR InstName C5
SYMATTR Value 100µ
SYMATTR SpiceLine Rser=35m
SYMBOL cap -48 -48 R0
WINDOW 3 37 33 Left 2
WINDOW 123 22 56 Left 2
SYMATTR Value 10µ
SYMATTR Value2 x2
SYMATTR InstName C6
SYMATTR SpiceLine Rser=8m
SYMBOL zener 48 240 M180
WINDOW 0 24 72 Left 2
WINDOW 3 24 0 Left 2
SYMATTR InstName D1
SYMATTR Value 1N750
SYMATTR Description Diode
SYMATTR Type diode
SYMBOL cap 768 64 R0
WINDOW 3 35 33 Left 2
WINDOW 40 24 58 Left 2
SYMATTR Value 47µ
SYMATTR SpiceLine2 x2
SYMATTR InstName C7
SYMATTR SpiceLine Rser=4m
SYMBOL res 80 144 R270
WINDOW 0 32 56 VTop 2
WINDOW 3 0 56 VBottom 2
SYMATTR InstName R5
SYMATTR Value 51K
SYMATTR SpiceLine ""
SYMBOL res 976 48 R0
SYMATTR InstName Rload
SYMATTR Value 4
SYMATTR SpiceLine ""
TEXT 856 544 Left 2 !.tran 1.2m startup
TEXT 416 -80 Bottom 2 ;LTM4612 - EN55022B Compliant 36Vin, 15Vout, 5A, DC/DC µModule Regulator\nHigh Density 3A High Voltage Low Noise Step-Down Regulator\nInput: 5V to 36V     Output: 12V @ 3A
TEXT -232 608 Left 2 ;Note:\n  If the simulation model is not found please update with the "Sync Release" command from the "Tools" menu.\n  It remains the customer's responsibility to verify proper and reliable operation in the actual application.\n  Component substitution and printed circuit board layout may significantly affect circuit performance or reliability\n  Contact your local sales representative for assistance. This circuit is distributed to customers only for use with LTC parts\n  Copyright © 2008 Linear Technology Inc. All rights reserved.
