Version 4
SHEET 1 1988 1080
WIRE -528 -576 -640 -576
WIRE -160 -576 -528 -576
WIRE -640 -560 -640 -576
WIRE -64 -560 -432 -560
WIRE 256 -560 -64 -560
WIRE -528 -544 -528 -576
WIRE -352 -512 -368 -512
WIRE -256 -512 -272 -512
WIRE -256 -464 -256 -512
WIRE -160 -464 -160 -576
WIRE -64 -464 -64 -560
WIRE -640 -448 -640 -480
WIRE -528 -448 -528 -480
WIRE -432 -432 -432 -560
WIRE -432 -304 -432 -352
WIRE -352 -304 -432 -304
WIRE 256 -304 256 -560
WIRE 256 -304 224 -304
WIRE 240 -128 -368 -128
WIRE -368 -112 -368 -128
WIRE -352 -112 -368 -112
WIRE 240 -112 240 -128
WIRE 240 -112 224 -112
WIRE 432 -112 240 -112
WIRE 544 -112 432 -112
WIRE 720 -112 544 -112
WIRE 720 -96 720 -112
WIRE 720 -96 640 -96
WIRE 432 -80 432 -112
WIRE 544 -80 544 -112
WIRE 720 -80 720 -96
WIRE 384 -16 224 -16
WIRE 432 16 432 -16
WIRE 544 16 544 -16
WIRE 720 16 720 0
WIRE 720 16 672 16
WIRE 720 32 720 16
WIRE 240 64 -368 64
WIRE -368 80 -368 64
WIRE -352 80 -368 80
WIRE 240 80 240 64
WIRE 240 80 224 80
WIRE 256 80 240 80
WIRE 352 80 336 80
WIRE 640 96 640 -96
WIRE 640 96 400 96
WIRE 672 128 672 16
WIRE 672 128 416 128
WIRE 240 160 -368 160
WIRE -368 176 -368 160
WIRE -352 176 -368 176
WIRE 240 176 240 160
WIRE 240 176 224 176
WIRE 240 256 -368 256
WIRE -368 272 -368 256
WIRE -352 272 -368 272
WIRE 240 272 240 256
WIRE 240 272 224 272
WIRE 256 272 240 272
WIRE 336 272 320 272
WIRE -352 368 -368 368
WIRE -256 448 -256 432
WIRE -160 448 -160 432
WIRE 128 448 128 432
WIRE 384 448 384 -16
WIRE 384 448 128 448
WIRE 32 464 32 432
WIRE 400 464 400 96
WIRE 400 464 32 464
WIRE -64 480 -64 432
WIRE 416 480 416 128
WIRE 416 480 -64 480
FLAG -640 -448 0
FLAG -640 -576 IN
FLAG 544 16 0
FLAG 720 -112 OUT
FLAG -256 448 0
FLAG -528 -448 0
FLAG 720 32 0
FLAG 336 272 0
FLAG 352 80 0
FLAG -368 -512 0
FLAG 432 16 0
FLAG -160 448 0
FLAG -368 368 0
SYMBOL VOLTAGE -640 -576 R0
WINDOW 3 27 94 Left 2
WINDOW 123 0 0 Left 2
WINDOW 39 0 0 Left 2
SYMATTR Value 12
SYMATTR InstName V1
SYMBOL cap -544 -544 R0
WINDOW 40 26 60 Left 2
WINDOW 3 38 32 Left 2
SYMATTR SpiceLine2 x4
SYMATTR Value 22µ
SYMATTR InstName C3
SYMATTR SpiceLine V=35 Rser=5m
SYMBOL cap 256 288 R270
WINDOW 0 32 32 VTop 2
WINDOW 3 0 32 VBottom 2
SYMATTR InstName C4
SYMATTR Value .001µ
SYMBOL res 240 96 R270
WINDOW 0 32 56 VTop 2
WINDOW 3 0 56 VBottom 2
SYMATTR InstName R2
SYMATTR Value 90.9K
SYMBOL res -256 -528 R90
WINDOW 0 0 56 VBottom 2
WINDOW 3 32 56 VTop 2
SYMATTR InstName R3
SYMATTR Value 100K
SYMBOL res -448 -448 R0
SYMATTR InstName R4
SYMATTR Value 10K
SYMBOL LTM4630 -64 -16 R0
SYMATTR InstName U2
SYMBOL current 720 -80 R0
WINDOW 123 0 0 Left 2
WINDOW 39 0 0 Left 2
SYMATTR InstName I1
SYMATTR Value pulse(0 9 .5m 1u 1u .1m .2m)
SYMBOL polcap 416 -80 R0
WINDOW 3 37 35 Left 2
WINDOW 40 24 62 Left 2
SYMATTR Value 470µ
SYMATTR SpiceLine2 x4
SYMATTR InstName C2
SYMATTR Description Capacitor
SYMATTR Type cap
SYMATTR SpiceLine V=2.5 Irms=2.8 Rser=6m Lser=1n
SYMBOL cap 528 -80 R0
WINDOW 3 38 33 Left 2
WINDOW 40 28 58 Left 2
SYMATTR Value 100µ
SYMATTR SpiceLine2 x2
SYMATTR InstName C1
SYMATTR SpiceLine Rser=2m Lser=0.8n
TEXT 544 336 Left 2 !.tran 1m startup
TEXT -640 472 Left 2 ;Note:\n  Smaller values are used for TK/SS capacitors to reduce simulation time. See datasheet for typical values.\n  If the simulation model is not found please update with the "Sync Release" command from the "Tools" menu.\n  It remains the customer's responsibility to verify proper and reliable operation in the actual application.\n  Component substitution and printed circuit board layout may significantly affect circuit performance or reliability\n  Contact your local sales representative for assistance. This circuit is distributed to customers only for use with LTC parts\n  Copyright © 2015 Linear Technology Inc. All rights reserved.
TEXT -64 -584 Bottom 2 ;LTM4630 - Dual 18A or Single 36A DC/DC µModule Regulator\nHigh Efficiency Single 36A Step-Down Regulator\nInput : 4.5V to 15V     Outputs: 1V @ 36A
