Version 4
SHEET 1 1304 836
WIRE -192 -80 -288 -80
WIRE -80 -80 -192 -80
WIRE 16 -80 -80 -80
WIRE 160 -80 16 -80
WIRE 432 -80 160 -80
WIRE -288 -64 -288 -80
WIRE -192 -64 -192 -80
WIRE -80 -64 -80 -80
WIRE 160 -64 160 -80
WIRE 16 0 16 -80
WIRE 32 0 16 0
WIRE 432 0 432 -80
WIRE 432 0 416 0
WIRE -288 32 -288 16
WIRE -192 32 -192 0
WIRE -80 32 -80 0
WIRE -288 192 -416 192
WIRE -176 192 -288 192
WIRE -96 192 -176 192
WIRE 16 192 -96 192
WIRE 32 192 16 192
WIRE 512 192 416 192
WIRE 624 192 512 192
WIRE 736 192 624 192
WIRE -416 208 -416 192
WIRE -288 208 -288 192
WIRE -176 208 -176 192
WIRE -96 208 -96 192
WIRE 512 208 512 192
WIRE 624 208 624 192
WIRE 736 208 736 192
WIRE -96 288 -96 272
WIRE 32 288 -96 288
WIRE 464 288 416 288
WIRE -416 304 -416 288
WIRE -288 304 -288 272
WIRE -176 304 -176 272
WIRE -96 304 -96 288
WIRE 512 304 512 272
WIRE 624 304 624 272
WIRE 736 304 736 288
WIRE 464 368 464 288
WIRE 624 368 464 368
WIRE 736 368 624 368
WIRE 16 384 16 192
WIRE 32 384 16 384
WIRE 432 384 416 384
WIRE 736 384 736 368
WIRE -96 400 -96 384
WIRE 624 400 624 368
WIRE -48 480 -64 480
WIRE 32 480 16 480
WIRE 432 480 416 480
WIRE 624 480 624 464
WIRE 736 480 736 464
WIRE 160 560 160 544
WIRE 288 560 288 544
FLAG 160 560 0
FLAG -288 32 0
FLAG -96 400 0
FLAG -176 304 0
FLAG -416 304 0
FLAG 736 304 0
FLAG 736 192 VTT
FLAG -416 192 VDDQ
FLAG -288 -80 IN
FLAG 288 560 0
FLAG -80 32 0
FLAG -192 32 0
FLAG -288 304 0
FLAG 624 304 0
FLAG 512 304 0
FLAG -64 480 0
FLAG 624 480 0
FLAG 736 368 VTTR
FLAG 736 480 0
SYMBOL voltage -288 -80 R0
SYMATTR InstName V1
SYMATTR Value 12
SYMBOL res -112 288 R0
SYMATTR InstName R2
SYMATTR Value 40.2K
SYMBOL cap -192 208 R0
SYMATTR InstName C1
SYMATTR Value 10µ
SYMATTR SpiceLine Rser=5m
SYMBOL res -432 192 R0
SYMATTR InstName Rload1
SYMATTR Value 0.5
SYMBOL res 720 192 R0
SYMATTR InstName Rload2
SYMATTR Value 0.25
SYMBOL PowerProducts\\LTM4632 224 240 R0
SYMATTR InstName U1
SYMBOL cap -96 -64 R0
WINDOW 123 26 63 Left 2
WINDOW 3 38 36 Left 2
SYMATTR Value2 x2
SYMATTR Value 4.7µ
SYMATTR InstName C4
SYMATTR SpiceLine V=16 Irms=0 Rser=5m Lser=0
SYMBOL cap -208 -64 R0
WINDOW 123 26 63 Left 2
WINDOW 3 38 36 Left 2
SYMATTR Value2 x2
SYMATTR Value 47µ
SYMATTR InstName C3
SYMATTR SpiceLine V=25 Irms=0 Rser=5m Lser=0
SYMBOL cap -304 208 R0
WINDOW 123 26 69 Left 2
WINDOW 3 38 36 Left 2
SYMATTR Value2 x2
SYMATTR Value 100µ
SYMATTR InstName C5
SYMATTR SpiceLine V=25 Irms=0 Rser=5m Lser=0
SYMBOL cap -112 208 R0
SYMATTR InstName C6
SYMATTR Value 10p
SYMBOL cap 608 208 R0
SYMATTR InstName C7
SYMATTR Value 10µ
SYMATTR SpiceLine Rser=5m
SYMBOL cap 496 208 R0
WINDOW 123 26 62 Left 2
WINDOW 3 38 36 Left 2
SYMATTR Value2 x2
SYMATTR Value 100µ
SYMATTR InstName C8
SYMATTR SpiceLine V=25 Irms=0 Rser=5m Lser=0
SYMBOL cap 16 464 R90
WINDOW 0 0 32 VBottom 2
WINDOW 3 32 32 VTop 2
SYMATTR InstName C2
SYMATTR Value .0001µ
SYMBOL cap 608 400 R0
SYMATTR InstName C9
SYMATTR Value 10n
SYMBOL res 720 368 R0
SYMATTR InstName Rload3
SYMATTR Value 75
TEXT 512 544 Left 2 !.tran .8m startup
TEXT 208 -120 Bottom 2 ;LTM4632 - Ultrathin, Triple Output, Step-Down µModule Regulator for DDR-QDR4 Memory\nTriple Output Ultrathin Buck Regulator for DDR-QDR4\nInput: 3.6V to 15V     Outputs: VDDQ 1.5V @ 3A, VTT 0.75V @ ±3A, VTTR 0.75V @ 10mA
TEXT -504 584 Left 2 ;Note:\n  Smaller values are used for TK/SS capacitors to reduce simulation time. See datasheet for typical values.\n  If the simulation model is not found please update with the "Sync Release" command from the "Tools" menu.\n  It remains the customer's responsibility to verify proper and reliable operation in the actual application.\n  Component substitution and printed circuit board layout may significantly affect circuit performance or reliability\n  Contact your local sales representative for assistance. This circuit is distributed to customers only for use with LTC parts\n  Copyright © 2016 Linear Technology Inc. All rights reserved.
