Version 4
SHEET 1 1792 904
WIRE 0 80 -96 80
WIRE 96 80 0 80
WIRE 192 80 96 80
WIRE 416 80 192 80
WIRE -96 96 -96 80
WIRE 416 96 416 80
WIRE 0 112 0 80
WIRE 96 112 96 80
WIRE 192 112 192 80
WIRE 800 144 688 144
WIRE 928 144 800 144
WIRE 1008 144 928 144
WIRE 1088 144 1008 144
WIRE 1152 144 1088 144
WIRE 928 160 928 144
WIRE 1008 160 1008 144
WIRE 1152 160 1152 144
WIRE -96 192 -96 176
WIRE 0 192 0 176
WIRE 96 192 96 176
WIRE 192 208 192 192
WIRE 304 208 192 208
WIRE 800 208 688 208
WIRE 800 224 800 208
WIRE 928 256 928 224
WIRE 1008 256 1008 224
WIRE 1152 256 1152 240
WIRE 1152 256 1120 256
WIRE 304 272 272 272
WIRE 704 272 688 272
WIRE 1152 272 1152 256
WIRE 800 320 800 304
WIRE 304 336 272 336
WIRE 704 336 704 272
WIRE 704 336 688 336
WIRE 272 400 272 336
WIRE 304 400 272 400
WIRE 1088 400 1088 144
WIRE 1088 400 688 400
WIRE 1120 464 1120 256
WIRE 1120 464 688 464
WIRE 224 592 208 592
WIRE 304 592 288 592
WIRE 416 672 416 656
WIRE 576 672 576 656
FLAG 416 672 0
FLAG 576 672 0
FLAG 800 320 0
FLAG -96 80 IN
FLAG 1152 144 OUT
FLAG 96 192 0
FLAG -96 192 0
FLAG 928 256 0
FLAG 1008 256 0
FLAG 1152 272 0
FLAG 0 192 0
FLAG 208 592 0
SYMBOL voltage -96 80 R0
WINDOW 123 0 0 Left 0
WINDOW 39 12 125 Left 0
SYMATTR InstName V1
SYMATTR Value 12
SYMBOL res 784 208 R0
SYMATTR InstName R1
SYMATTR Value 40.2K
SYMBOL cap 912 160 R0
SYMATTR InstName C1
SYMATTR Value 10µ
SYMATTR SpiceLine Rser=5m
SYMBOL cap 80 112 R0
SYMATTR InstName C2
SYMATTR Value 47µ
SYMBOL cap 992 160 R0
WINDOW 40 32 80 Left 0
WINDOW 3 29 52 Left 0
SYMATTR SpiceLine2 x2
SYMATTR Value 100µ
SYMATTR InstName C3
SYMATTR SpiceLine Rser=3m
SYMBOL polcap -16 112 R0
SYMATTR InstName C4
SYMATTR Value 150µ
SYMATTR SpiceLine Rser=9m
SYMBOL res 176 96 R0
SYMATTR InstName R2
SYMATTR Value 100K
SYMBOL cap 784 144 R0
WINDOW 0 37 21 Left 0
WINDOW 3 34 57 Left 0
SYMATTR InstName C5
SYMATTR Value 100p
SYMBOL cap 288 576 R90
WINDOW 0 0 32 VBottom 0
WINDOW 3 32 32 VTop 0
SYMATTR InstName C6
SYMATTR Value 2200p
SYMBOL res 1136 144 R0
SYMATTR InstName Rload
SYMATTR Value 0.125
SYMBOL PowerProducts\\LTM4601AHV 496 352 R0
SYMATTR InstName U1
TEXT 856 584 Left 0 !.tran 1.2m startup
TEXT 520 64 Bottom 0 ;LTM4601AHV - 12A, High Efficiency Step-Down DC/DC µModule\nInput: 12V     Output: 1.5V @ 12A
TEXT -104 688 Left 0 ;Note:\n  If the simulation model is not found please update with the "Sync Release" command from the "Tools" menu.\n  It remains the customer's responsibility to verify proper and reliable operation in the actual application.\n  Component substitution and printed circuit board layout may significantly affect circuit performance or reliability\n  Contact your local sales representative for assistance. This circuit is distributed to customers only for use with LTC parts\n  Copyright © 2010 Linear Technology Inc. All rights reserved.
