Version 4
SHEET 1 1344 844
WIRE -128 -80 -224 -80
WIRE -32 -80 -128 -80
WIRE 64 -80 -32 -80
WIRE 512 -80 448 -80
WIRE 560 -80 512 -80
WIRE 672 -80 560 -80
WIRE 768 -80 672 -80
WIRE -224 -64 -224 -80
WIRE -128 -64 -128 -80
WIRE -32 -64 -32 -80
WIRE 560 -64 560 -80
WIRE 672 -64 672 -80
WIRE 768 -64 768 -80
WIRE 480 16 448 16
WIRE -224 32 -224 16
WIRE -128 32 -128 0
WIRE -32 32 -32 0
WIRE 560 32 560 0
WIRE 672 32 672 0
WIRE 768 32 768 16
WIRE 64 112 48 112
WIRE 480 112 480 16
WIRE 480 112 448 112
WIRE 512 208 512 -80
WIRE 512 208 448 208
WIRE 464 304 448 304
WIRE -32 496 -48 496
WIRE 64 496 32 496
WIRE 464 496 448 496
WIRE 560 496 544 496
WIRE 256 672 256 656
FLAG 256 672 0
FLAG -224 32 0
FLAG 48 112 0
FLAG -48 496 0
FLAG 560 496 0
FLAG 560 32 0
FLAG 768 32 0
FLAG 464 304 0
FLAG -224 -80 IN
FLAG 768 -80 OUT
FLAG -128 32 0
FLAG -32 32 0
FLAG 672 32 0
SYMBOL voltage -224 -80 R0
WINDOW 123 24 138 Left 2
WINDOW 39 24 117 Left 2
SYMATTR InstName V1
SYMATTR Value 5
SYMBOL cap 32 480 R90
WINDOW 0 0 32 VBottom 2
WINDOW 3 32 32 VTop 2
SYMATTR InstName C1
SYMATTR Value .001µ
SYMBOL res 448 512 R270
WINDOW 0 32 56 VTop 2
WINDOW 3 0 56 VBottom 2
SYMATTR InstName R1
SYMATTR Value 6.65K
SYMBOL cap 544 -64 R0
WINDOW 123 28 54 Left 2
WINDOW 3 35 33 Left 2
SYMATTR Value2 x2
SYMATTR Value 100µ
SYMATTR InstName C2
SYMATTR SpiceLine V=6.3 Irms=0 Rser=0.002 Lser=0 mfg="TDK" pn="C575OX5ROJI07M" type="X5R"
SYMBOL res 752 -80 R0
SYMATTR InstName Rload
SYMATTR Value .15
SYMBOL polcap -144 -64 R0
SYMATTR InstName C3
SYMATTR Value 150µ
SYMATTR SpiceLine Rser=35m
SYMBOL cap -48 -64 R0
WINDOW 123 27 58 Left 2
WINDOW 3 38 36 Left 2
SYMATTR Value2 x3
SYMATTR Value 22µ
SYMATTR InstName C4
SYMATTR SpiceLine V=16 Irms=0 Rser=2m Lser=0
SYMBOL cap 656 -64 R0
WINDOW 123 30 76 Left 2
SYMATTR InstName C5
SYMATTR Value 22µ
SYMATTR SpiceLine V=6.3 Irms=0 Rser=2m Lser=0
SYMBOL PowerProducts\\LTM4648 256 256 R0
SYMATTR InstName U2
TEXT 560 616 Left 2 !.tran 1m startup
TEXT 272 -160 Bottom 2 ;LTM4648 - Low Vin, 10A DC/DC µModule Regulator\n10A Buck µModule Regulator\nInput: 2.375V to 5.5V     Output: 1.5V @ 10A
TEXT -296 680 Left 2 ;Note:\n  If the simulation model is not found please update with the "Sync Release" command from the "Tools" menu.\n  It remains the customer's responsibility to verify proper and reliable operation in the actual application.\n  Component substitution and printed circuit board layout may significantly affect circuit performance or reliability\n  Contact your local sales representative for assistance. This circuit is distributed to customers only for use with LTC parts\n  Copyright © 2017 Linear Technology Inc. All rights reserved.
