Version 4
SHEET 1 1132 680
WIRE 272 -80 -80 -80
WIRE -288 -64 -384 -64
WIRE -192 -64 -288 -64
WIRE 176 -64 -192 -64
WIRE 176 -48 176 -64
WIRE 272 -48 272 -80
WIRE -384 -32 -384 -64
WIRE -288 -32 -288 -64
WIRE -192 -32 -192 -64
WIRE -80 0 -80 -80
WIRE -384 64 -384 48
WIRE -288 64 -288 32
WIRE -192 64 -192 32
WIRE -80 96 -80 80
WIRE 48 96 -80 96
WIRE -80 112 -80 96
WIRE 48 192 32 192
WIRE 480 192 400 192
WIRE 576 192 480 192
WIRE 688 192 576 192
WIRE -80 208 -80 192
WIRE 480 208 480 192
WIRE 576 208 576 192
WIRE 688 208 688 192
WIRE 480 304 480 272
WIRE 576 304 576 272
WIRE 688 304 688 288
WIRE -48 384 -64 384
WIRE 48 384 16 384
WIRE 416 384 400 384
WIRE 512 384 496 384
WIRE 176 448 176 432
WIRE 272 448 272 432
FLAG 176 448 0
FLAG 272 448 0
FLAG -64 384 0
FLAG 512 384 0
FLAG -384 64 0
FLAG 32 192 0
FLAG 688 304 0
FLAG 480 304 0
FLAG -384 -64 IN
FLAG 688 192 OUT
FLAG -288 64 0
FLAG -192 64 0
FLAG -80 208 0
FLAG 576 304 0
SYMBOL PowerProducts\\LTM4618 224 192 R0
SYMATTR InstName U1
SYMBOL cap 16 368 R90
WINDOW 0 0 32 VBottom 0
WINDOW 3 32 32 VTop 0
SYMATTR InstName C1
SYMATTR Value .001µ
SYMBOL res 400 400 R270
WINDOW 0 32 56 VTop 0
WINDOW 3 0 56 VBottom 0
SYMATTR InstName R1
SYMATTR Value 28.7K
SYMBOL voltage -384 -48 R0
SYMATTR InstName V1
SYMATTR Value 12
SYMBOL cap 464 208 R0
SYMATTR InstName C2
SYMATTR Value 47µ
SYMATTR SpiceLine Rser=6m
SYMBOL res 672 192 R0
SYMATTR InstName Rload
SYMATTR Value .42
SYMBOL polcap -304 -32 R0
SYMATTR InstName C4
SYMATTR Value 150µ
SYMATTR SpiceLine Rser=9m
SYMBOL cap -208 -32 R0
WINDOW 40 33 66 Left 0
WINDOW 3 43 38 Left 0
SYMATTR SpiceLine2 x2
SYMATTR Value 10µ
SYMATTR InstName C6
SYMATTR SpiceLine Rser=5m
SYMBOL res -96 96 R0
SYMATTR InstName R2
SYMATTR Value 3.16K
SYMBOL res -96 -16 R0
SYMATTR InstName R3
SYMATTR Value 10K
SYMBOL polcap 560 208 R0
SYMATTR InstName C3
SYMATTR Value 330µ
SYMATTR SpiceLine Rser=40m
TEXT 584 432 Left 0 !.tran 750u startup
TEXT -336 472 Left 0 ;Note:\n  If the simulation model is not found please update with the "Sync Release" command from the "Tools" menu.\n  It remains the customer's responsibility to verify proper and reliable operation in the actual application.\n  Component substitution and printed circuit board layout may significantly affect circuit performance or reliability\n  Contact your local sales representative for assistance. This circuit is distributed to customers only for use with LTC parts\n  Copyright © 2010 Linear Technology Inc. All rights reserved.
TEXT 248 -96 Bottom 0 ;LTM4618 - 6A, High Efficiency Step-Down DC/DC µModule Regulator\nInput: 12V     Output: 2.5V @ 6A
