Version 4
SHEET 1 1988 1080
WIRE 256 -624 -416 -624
WIRE -800 -608 -912 -608
WIRE -160 -608 -800 -608
WIRE -912 -592 -912 -608
WIRE -800 -576 -800 -608
WIRE -416 -560 -416 -624
WIRE -256 -560 -416 -560
WIRE -64 -560 -176 -560
WIRE -64 -528 -64 -560
WIRE -16 -528 -64 -528
WIRE 80 -528 48 -528
WIRE -352 -512 -368 -512
WIRE -256 -512 -272 -512
WIRE -912 -480 -912 -512
WIRE -800 -480 -800 -512
WIRE -256 -464 -256 -512
WIRE -160 -464 -160 -608
WIRE -64 -464 -64 -528
WIRE -416 -304 -416 -560
WIRE -352 -304 -416 -304
WIRE 256 -304 256 -624
WIRE 256 -304 224 -304
WIRE -1008 -112 -1648 -112
WIRE -768 -112 -1008 -112
WIRE -688 -112 -768 -112
WIRE -608 -112 -688 -112
WIRE -352 -112 -608 -112
WIRE 352 -112 224 -112
WIRE 416 -112 352 -112
WIRE 512 -112 416 -112
WIRE -1008 -96 -1008 -112
WIRE -848 -96 -1008 -96
WIRE -768 -96 -768 -112
WIRE -688 -96 -688 -112
WIRE 416 -96 416 -112
WIRE 512 -96 512 -112
WIRE -1648 -80 -1648 -112
WIRE -1008 -80 -1008 -96
WIRE -352 -16 -576 -16
WIRE 416 -16 416 -32
WIRE 512 -16 512 -32
WIRE -768 0 -768 -32
WIRE -688 0 -688 -32
WIRE -1008 16 -1008 0
WIRE -816 16 -1008 16
WIRE -1648 32 -1648 0
WIRE -1008 32 -1008 16
WIRE -528 80 -544 80
WIRE -432 80 -448 80
WIRE -352 80 -432 80
WIRE 320 80 224 80
WIRE -352 176 -416 176
WIRE 304 176 224 176
WIRE -512 272 -528 272
WIRE -400 272 -448 272
WIRE -352 272 -400 272
WIRE 272 272 224 272
WIRE -352 368 -368 368
WIRE -256 448 -256 432
WIRE -160 448 -160 432
WIRE -816 480 -816 16
WIRE -64 480 -64 432
WIRE -64 480 -816 480
WIRE -848 496 -848 -96
WIRE 32 496 32 432
WIRE 32 496 -848 496
WIRE -400 512 -400 272
WIRE 272 512 272 272
WIRE 272 512 -400 512
WIRE -416 528 -416 176
WIRE 304 528 304 176
WIRE 304 528 -416 528
WIRE -432 544 -432 80
WIRE 320 544 320 80
WIRE 320 544 -432 544
WIRE -576 560 -576 -16
WIRE 128 560 128 432
WIRE 128 560 -576 560
WIRE -608 576 -608 -112
WIRE 352 576 352 -112
WIRE 352 576 -608 576
FLAG -912 -480 0
FLAG -912 -608 IN
FLAG 512 -16 0
FLAG -256 448 0
FLAG -544 80 0
FLAG -528 272 0
FLAG -800 -480 0
FLAG -768 0 0
FLAG -688 0 0
FLAG -1008 32 0
FLAG -1008 -112 OUT
FLAG -368 -512 0
FLAG 416 -16 0
FLAG -160 448 0
FLAG -368 368 0
FLAG -1648 32 0
FLAG 80 -528 0
SYMBOL VOLTAGE -912 -608 R0
WINDOW 3 27 94 Left 2
WINDOW 123 0 0 Left 2
WINDOW 39 0 0 Left 2
SYMATTR Value 12
SYMATTR InstName V1
SYMBOL cap 496 -96 R0
WINDOW 3 24 54 Left 2
SYMATTR Value 100µ
SYMATTR InstName C1
SYMATTR SpiceLine Rser=5m Lser=0.8n
SYMBOL res -432 64 R90
WINDOW 0 0 56 VBottom 2
WINDOW 3 32 56 VTop 2
SYMATTR InstName R1
SYMATTR Value 90.9K
SYMBOL cap -448 256 R90
WINDOW 0 0 32 VBottom 2
WINDOW 3 32 32 VTop 2
SYMATTR InstName C2
SYMATTR Value .001µ
SYMBOL cap -816 -576 R0
WINDOW 40 26 60 Left 2
WINDOW 3 38 32 Left 2
SYMATTR SpiceLine2 x4
SYMATTR Value 22µ
SYMATTR InstName C3
SYMATTR SpiceLine V=35 Rser=5m
SYMBOL cap -704 -96 R0
WINDOW 3 24 54 Left 2
SYMATTR Value 100µ
SYMATTR InstName C5
SYMATTR SpiceLine Rser=5m Lser=0.8n
SYMBOL polcap -784 -96 R0
WINDOW 3 24 64 Left 2
SYMATTR Value 330µ
SYMATTR InstName C6
SYMATTR Description Capacitor
SYMATTR Type cap
SYMATTR SpiceLine V=4 Irms=2.8 Rser=0.009 Lser=0
SYMBOL res -256 -528 R90
WINDOW 0 0 56 VBottom 2
WINDOW 3 32 56 VTop 2
SYMATTR InstName R3
SYMATTR Value 100k
SYMBOL polcap 400 -96 R0
WINDOW 3 24 64 Left 2
SYMATTR Value 330µ
SYMATTR InstName C7
SYMATTR Description Capacitor
SYMATTR Type cap
SYMATTR SpiceLine V=4 Irms=2.8 Rser=0.009 Lser=0
SYMBOL res -160 -576 R90
WINDOW 0 0 56 VBottom 2
WINDOW 3 32 56 VTop 2
SYMATTR InstName R4
SYMATTR Value 10K
SYMBOL res -1024 -96 R0
SYMATTR InstName Rload1
SYMATTR Value 0.077
SYMBOL PowerProducts\\LTM4620A -64 -16 R0
SYMATTR InstName U1
SYMBOL load2 -1648 -80 R0
SYMATTR Value PWL(0 0 0.5m 0 0.501m 13 0.6m 13 0.601m 0)
SYMATTR InstName ILoad2
SYMBOL cap 48 -544 R90
WINDOW 0 0 32 VBottom 2
WINDOW 3 32 32 VTop 2
SYMATTR InstName C4
SYMATTR Value 4.7µ
TEXT 488 464 Left 2 !.tran 700u startup
TEXT -720 616 Left 2 ;Note:\n  Smaller values are used for TK/SS capacitors to reduce simulation time. See datasheet for typical values.\n  If the simulation model is not found please update with the "Sync Release" command from the "Tools" menu.\n  It remains the customer's responsibility to verify proper and reliable operation in the actual application.\n  Component substitution and printed circuit board layout may significantly affect circuit performance or reliability\n  Contact your local sales representative for assistance. This circuit is distributed to customers only for use with LTC parts\n  Copyright © 2013 Linear Technology Inc. All rights reserved.
TEXT -88 -632 Bottom 2 ;LTM4620A - Dual 13A, Step-Down DC/DC µModule Regulator\nHigh Efficiency Single 26A Step-Down Regulator\nInput : 4.5V to 16V     Output: 1V @ 26A
