Version 4
SHEET 1 2048 1428
WIRE -1680 -784 -1776 -784
WIRE -1472 -784 -1680 -784
WIRE -1200 -784 -1472 -784
WIRE -576 -784 -1200 -784
WIRE -1776 -768 -1776 -784
WIRE -1680 -768 -1680 -784
WIRE -1328 -752 -1568 -752
WIRE -816 -752 -1328 -752
WIRE -688 -752 -816 -752
WIRE -1328 -736 -1328 -752
WIRE -688 -736 -688 -752
WIRE -1776 -672 -1776 -688
WIRE -1680 -672 -1680 -704
WIRE -1328 -640 -1328 -656
WIRE -1200 -640 -1200 -784
WIRE -816 -640 -816 -752
WIRE -688 -640 -688 -656
WIRE -1472 -576 -1472 -784
WIRE -1408 -576 -1472 -576
WIRE -576 -576 -576 -784
WIRE -576 -576 -608 -576
WIRE -1408 -480 -1440 -480
WIRE -576 -480 -608 -480
WIRE -1776 -384 -2112 -384
WIRE -1648 -384 -1776 -384
WIRE -1536 -384 -1648 -384
WIRE -1440 -384 -1536 -384
WIRE -1408 -384 -1440 -384
WIRE -576 -384 -608 -384
WIRE -512 -384 -576 -384
WIRE -384 -384 -512 -384
WIRE -272 -384 -384 -384
WIRE -128 -384 -272 -384
WIRE -2112 -368 -2112 -384
WIRE -1776 -368 -1776 -384
WIRE -1648 -368 -1648 -384
WIRE -1536 -368 -1536 -384
WIRE -512 -368 -512 -384
WIRE -384 -368 -384 -384
WIRE -272 -368 -272 -384
WIRE -128 -368 -128 -384
WIRE -1440 -288 -1440 -384
WIRE -1408 -288 -1440 -288
WIRE -576 -288 -576 -384
WIRE -576 -288 -608 -288
WIRE -512 -288 -512 -304
WIRE -512 -288 -544 -288
WIRE -2112 -272 -2112 -288
WIRE -1776 -272 -1776 -288
WIRE -1648 -272 -1648 -304
WIRE -1536 -272 -1536 -304
WIRE -512 -272 -512 -288
WIRE -384 -272 -384 -304
WIRE -272 -272 -272 -288
WIRE -128 -272 -128 -288
WIRE -1408 -96 -1440 -96
WIRE -544 -96 -544 -288
WIRE -544 -96 -608 -96
WIRE -1440 0 -1440 -96
WIRE -1408 0 -1440 0
WIRE -1504 96 -1520 96
WIRE -1408 96 -1424 96
WIRE -576 96 -608 96
WIRE -1408 192 -1424 192
WIRE -576 192 -576 96
WIRE -576 192 -608 192
WIRE -1200 272 -1200 256
WIRE -944 272 -944 256
WIRE -1568 304 -1568 -752
WIRE -1504 304 -1568 304
WIRE -1328 304 -1328 256
WIRE -1328 304 -1424 304
FLAG -1680 -672 0
FLAG -1776 -672 0
FLAG -1200 272 0
FLAG -944 272 0
FLAG -512 -272 0
FLAG -384 -272 0
FLAG -1648 -272 0
FLAG -1536 -272 0
FLAG -1776 -784 IN
FLAG -2112 -384 OUT2
FLAG -128 -384 OUT1
FLAG -1520 96 0
FLAG -272 -272 0
FLAG -1776 -272 0
FLAG -128 -272 0
FLAG -2112 -272 0
FLAG -1424 192 0
SYMBOL cap -1696 -768 R0
WINDOW 3 38 33 Left 2
WINDOW 123 26 57 Left 2
SYMATTR Value 10µ
SYMATTR Value2 x4
SYMATTR InstName C1
SYMBOL voltage -1776 -784 R0
WINDOW 123 0 0 Left 2
WINDOW 39 0 0 Left 2
SYMATTR InstName V1
SYMATTR Value 12
SYMBOL res -1344 -752 R0
SYMATTR InstName R1
SYMATTR Value 10K
SYMBOL res -704 -752 R0
SYMATTR InstName R2
SYMATTR Value 10K
SYMBOL cap -528 -368 R0
WINDOW 3 40 39 Left 2
WINDOW 123 27 63 Left 2
SYMATTR Value 100µ
SYMATTR Value2 x2
SYMATTR InstName C2
SYMATTR SpiceLine Rser=2m
SYMBOL cap -400 -368 R0
WINDOW 123 24 77 Left 2
SYMATTR InstName C3
SYMATTR Value 470µ
SYMATTR SpiceLine Rser=10m
SYMBOL cap -1664 -368 R0
WINDOW 123 24 77 Left 2
SYMATTR InstName C4
SYMATTR Value 470µ
SYMATTR SpiceLine Rser=10m
SYMBOL cap -1552 -368 R0
WINDOW 3 40 34 Left 2
WINDOW 123 28 60 Left 2
SYMATTR Value 100µ
SYMATTR Value2 x2
SYMATTR InstName C5
SYMATTR SpiceLine Rser=2m
SYMBOL res -1408 288 R90
WINDOW 0 0 56 VBottom 2
WINDOW 3 32 56 VTop 2
SYMATTR InstName R3
SYMATTR Value 10K
SYMBOL res -1408 80 R90
WINDOW 0 0 56 VBottom 2
WINDOW 3 32 56 VTop 2
SYMATTR InstName R4
SYMATTR Value 6.34K
SYMBOL res -288 -384 R0
SYMATTR InstName Rload1
SYMATTR Value 0.222
SYMBOL res -1792 -384 R0
SYMATTR InstName Rload2
SYMATTR Value 0.4
SYMBOL current -128 -368 R0
WINDOW 123 24 108 Left 2
SYMATTR Value2 1.6m 4.5 1.601m 0)
SYMATTR Value PWL(1.4m 0 1.401m 4.5
SYMATTR InstName I1
SYMBOL current -2112 -368 R0
WINDOW 123 24 108 Left 2
SYMATTR Value PWL(1.4m 0 1.401m 4.5
SYMATTR Value2 1.6m 4.5 1.601m 0)
SYMATTR InstName I2
SYMBOL PowerProducts\\LTM4675 -1008 -192 R0
WINDOW 39 -961 558 Left 2
WINDOW 40 -964 592 Left 2
SYMATTR SpiceLine VIN_ON=5.5 VIN_OFF=5 Vout_0=1 Vout_1=1.8 Ilim0_range=1 Ilim1_range=1 OC_limit0=1 OC_limit1=1 Mode_ll=2 Fault_response=0 Retry_delay=.1m
SYMATTR InstName U1
TEXT -208 272 Left 2 !.tran 2m startup
TEXT -1976 432 Left 1 ;Please read the following notes carefully, since the model presents different user interface than the real part does.\n(1) All PMBus communication and memory address related functions and pins are not modeled. \n(2) Changes to all parameter values during the simulation running will not be in effect, unless the simulation is stopped and restarted. This is different from the operation of the part, which will respond to the commanded changes while running. \n(3) Share_clk is not modeled. The default time reference of LTspice is used as the common time base for all time related parameters.\n(4) The following parameters can be defined, by right-clicking the symbol of LTC3880. Different nomenclature from the datasheet is adopted here. If any value of these parameters are set beyond the scope discribed in the datasheet, the resulting simulation outcomes are not meaningful.\n     VIN_ON & VIN_OFF -- in volts, set the unit start/stop input voltages;\n     Freq -- in Hz, sets switching frequency as one of values of 250K, 350K, 425K, 500K, 575K, 650K, 750K, 1000K. FREQ_CFG pin needs to float (or short to VDD25), to make the value be in effect;\n     PHs_0 & PHs_1 -- in degree,  set phase angle related to SYNC signal. Certain combinations are restricted as in datasheet. FREQ_CFG pin needs to float (or short to VDD25), to make the value be in effect;\n     Ton0_delay & Ton0_rise; Ton1_delay & Ton1_rise -- in sec, set delay and soft-start timers for channel0 and channel1. Initialization time is not modeled;\n     Toff0_delay & Toff0_fall; Toff1_delay & Toff1_fall -- in sec, set delay and soft-off timers for channel0 and channel1;\n     Vout_0 & Vout_1 -- in volt, set output voltages respectively;\n     Vout0_range & Vout1_range -- set maximum output range, with value 0 for 4.096V (CH0) and 5.5V (CH1); value 1 for 2.75V\n     Ilim0_range & Ilim1_range -- set maximum sensed peak current range, with value 0 for low 50mV, and 1 for high 75mV; \n     OC_limit0 & OC_limit1 -- set ratio of peak current limit to the maximum value defined by Ilimit_range. It must be one of values: 0.5, 0.572, 0.642, 0.714, 0.786, 0.858, 0.928, 1;\n     Mode_II -- sets light load operation mode: 0 for discontinuous, 1 for Burst, 2 for forced continuous;\n     Fault_response -- sets the response mode of the unit to occuring faults: 0 for ignore, 1 for latch up, 2 for Hiccup after Retry_delay time;\n     Retry_delay -- in sec, sets the timer before the unit turns on after a fault;
TEXT -1032 -800 Bottom 2 ;LTM4675 - Dual 9A or Single 18A µModule Regulator with Digital Power System Management\nDual 9A µModule Buck Regulator with Digital Interface for Control & Monitoring\nInput: 4.5V to 17V     Output: 1V @ 9A & 1.8V @ 9A
TEXT -1632 776 Left 2 ;Notes: \n  If the simulation model is not found please update with the "Sync Release" command from the "Tools" menu.\n  It remains the customer's responsibility to verify proper and reliable operation in the actual application.\n  Component substitution and printed circuit board layout may significantly affect circuit performance or reliability.\n  Contact your local sales representative for assistance. This circuit is distributed to customers only for use with LTC parts.\n  Copyright © 2016 Linear Technology Inc.  All rights reserved.
