Version 4
SHEET 1 1988 1080
WIRE -528 -640 -640 -640
WIRE -160 -640 -528 -640
WIRE -640 -624 -640 -640
WIRE -528 -624 -528 -640
WIRE -64 -608 -432 -608
WIRE 272 -608 -64 -608
WIRE -256 -560 -256 -576
WIRE -640 -528 -640 -544
WIRE -528 -528 -528 -560
WIRE -256 -464 -256 -480
WIRE -160 -464 -160 -640
WIRE -64 -464 -64 -608
WIRE 272 -464 272 -608
WIRE -432 -416 -432 -608
WIRE -432 -304 -432 -336
WIRE -352 -304 -432 -304
WIRE 272 -304 272 -384
WIRE 272 -304 224 -304
WIRE -848 -112 -1328 -112
WIRE -752 -112 -848 -112
WIRE -656 -112 -752 -112
WIRE -432 -112 -656 -112
WIRE -352 -112 -432 -112
WIRE 272 -112 224 -112
WIRE 368 -112 272 -112
WIRE 464 -112 368 -112
WIRE 560 -112 464 -112
WIRE 672 -112 560 -112
WIRE -1328 -96 -1328 -112
WIRE -1328 -96 -1408 -96
WIRE -848 -96 -848 -112
WIRE -752 -96 -752 -112
WIRE -656 -96 -656 -112
WIRE -432 -96 -432 -112
WIRE 368 -96 368 -112
WIRE 464 -96 464 -112
WIRE 560 -96 560 -112
WIRE 672 -96 672 -112
WIRE -1328 -16 -1376 -16
WIRE -352 -16 -592 -16
WIRE 272 -16 272 -112
WIRE 272 -16 224 -16
WIRE -1328 0 -1328 -16
WIRE -848 0 -848 -32
WIRE -752 0 -752 -32
WIRE -656 0 -656 -32
WIRE 272 0 272 -16
WIRE 368 0 368 -32
WIRE 464 0 464 -32
WIRE 560 0 560 -32
WIRE 672 0 672 -16
WIRE -544 80 -560 80
WIRE -432 80 -432 -32
WIRE -432 80 -464 80
WIRE -352 80 -432 80
WIRE 272 80 272 64
WIRE 272 80 224 80
WIRE 336 80 272 80
WIRE 432 80 416 80
WIRE -432 176 -464 176
WIRE -352 176 -368 176
WIRE 240 176 224 176
WIRE 336 176 304 176
WIRE -432 272 -464 272
WIRE -352 272 -368 272
WIRE 240 272 224 272
WIRE 320 272 304 272
WIRE -352 368 -384 368
WIRE -256 448 -256 432
WIRE -160 448 -160 432
WIRE -1376 480 -1376 -16
WIRE -64 480 -64 432
WIRE -64 480 -1376 480
WIRE -1408 512 -1408 -96
WIRE 32 512 32 432
WIRE 32 512 -1408 512
WIRE -592 544 -592 -16
WIRE 128 544 128 432
WIRE 128 544 -592 544
FLAG -640 -528 0
FLAG -640 -640 IN
FLAG 560 0 0
FLAG 672 -112 OUT2
FLAG -256 448 0
FLAG -560 80 0
FLAG -464 272 0
FLAG -528 -528 0
FLAG 672 0 0
FLAG 320 272 0
FLAG -752 0 0
FLAG -656 0 0
FLAG -1328 0 0
FLAG -1328 -112 OUT1
FLAG 432 80 0
FLAG -256 -576 0
FLAG 464 0 0
FLAG -160 448 0
FLAG -384 368 0
FLAG -848 0 0
FLAG 368 0 0
FLAG -464 176 0
FLAG 336 176 0
SYMBOL VOLTAGE -640 -640 R0
WINDOW 3 27 94 Left 2
WINDOW 123 0 0 Left 2
WINDOW 39 0 0 Left 2
SYMATTR Value 12
SYMATTR InstName V1
SYMBOL cap 544 -96 R0
WINDOW 3 24 54 Left 2
SYMATTR Value 100µ
SYMATTR InstName C1
SYMATTR SpiceLine Rser=2m Lser=0.8n
SYMBOL res -448 64 R90
WINDOW 0 0 56 VBottom 2
WINDOW 3 32 56 VTop 2
SYMATTR InstName R1
SYMATTR Value 13.3K
SYMBOL cap -368 256 R90
WINDOW 0 0 32 VBottom 2
WINDOW 3 32 32 VTop 2
SYMATTR InstName C2
SYMATTR Value .001µ
SYMBOL cap -544 -624 R0
WINDOW 40 26 60 Left 2
WINDOW 3 38 32 Left 2
SYMATTR SpiceLine2 x4
SYMATTR Value 22µ
SYMATTR InstName C3
SYMATTR SpiceLine V=35 Rser=5m
SYMBOL cap 240 288 R270
WINDOW 0 32 32 VTop 2
WINDOW 3 0 32 VBottom 2
SYMATTR InstName C4
SYMATTR Value .001µ
SYMBOL cap -672 -96 R0
WINDOW 3 24 54 Left 2
SYMATTR Value 100µ
SYMATTR InstName C5
SYMATTR SpiceLine Rser=2m Lser=0.8n
SYMBOL res 320 96 R270
WINDOW 0 32 56 VTop 2
WINDOW 3 0 56 VBottom 2
SYMATTR InstName R2
SYMATTR Value 8.25K
SYMBOL res -272 -464 M180
WINDOW 0 36 76 Left 2
WINDOW 3 36 40 Left 2
SYMATTR InstName R3
SYMATTR Value 143K
SYMBOL res -448 -432 R0
SYMATTR InstName R4
SYMATTR Value 10K
SYMBOL res 256 -480 R0
SYMATTR InstName R5
SYMATTR Value 10K
SYMBOL current 672 -96 R0
WINDOW 123 0 0 Left 2
WINDOW 39 0 0 Left 2
SYMATTR InstName I1
SYMATTR Value PWL(600u 0 601u 9 680u 9 681u 0)
SYMBOL current -1328 -96 R0
WINDOW 123 24 110 Left 2
WINDOW 39 24 95 Left 2
SYMATTR Value PWL(600u 0 601u 9 680u 9 681u 0)
SYMATTR InstName I2
SYMBOL polcap -864 -96 R0
WINDOW 3 24 64 Left 2
SYMATTR Value 220µ
SYMATTR InstName C8
SYMATTR Description Capacitor
SYMATTR Type cap
SYMATTR SpiceLine V=6.3 Rser=0.005 Lser=2n
SYMBOL polcap 352 -96 R0
WINDOW 3 20 63 Left 2
SYMATTR Value 220µ
SYMATTR InstName C9
SYMATTR Description Capacitor
SYMATTR Type cap
SYMATTR SpiceLine V=6.3 Rser=0.005 Lser=2n
SYMBOL LTM4630A -64 -16 R0
SYMATTR InstName U1
SYMBOL cap -768 -96 R0
WINDOW 3 24 54 Left 2
SYMATTR Value 100µ
SYMATTR InstName C6
SYMATTR SpiceLine Rser=2m Lser=0.8n
SYMBOL cap -368 160 R90
WINDOW 0 0 32 VBottom 2
WINDOW 3 32 32 VTop 2
SYMATTR InstName C10
SYMATTR Value 330p
SYMBOL cap 448 -96 R0
WINDOW 3 24 54 Left 2
SYMATTR Value 100µ
SYMATTR InstName C7
SYMATTR SpiceLine Rser=2m Lser=0.8n
SYMBOL cap 304 160 R90
WINDOW 0 0 32 VBottom 2
WINDOW 3 32 32 VTop 2
SYMATTR InstName C11
SYMATTR Value 330p
SYMBOL cap -448 -96 R0
SYMATTR Value 470p
SYMATTR InstName C12
SYMBOL cap 256 0 R0
SYMATTR InstName C13
SYMATTR Value 470p
TEXT 432 480 Left 2 !.tran 750u startup
TEXT -768 560 Left 2 ;Note:\n  Smaller values are used for TK/SS capacitors to reduce simulation time. See datasheet for typical values.\n  If the simulation model is not found please update with the "Sync Release" command from the "Tools" menu.\n  It remains the customer's responsibility to verify proper and reliable operation in the actual application.\n  Component substitution and printed circuit board layout may significantly affect circuit performance or reliability\n  Contact your local sales representative for assistance. This circuit is distributed to customers only for use with LTC parts\n  Copyright © 2015 Linear Technology Inc. All rights reserved.
TEXT -80 -672 Bottom 2 ;LTM4630A - Dual 18A or Single 36A DC/DC µModule Regulator\nHigh Efficiency Dual 18A Step-Down Regulator with Output Tracking\nInput : 6V to 15V     Outputs: 3.3 V @ 18A & 5.0V @ 18A
