Version 4
SHEET 1 1988 1080
WIRE -560 -288 -656 -288
WIRE -464 -288 -560 -288
WIRE -112 -288 -464 -288
WIRE -656 -272 -656 -288
WIRE -16 -272 -336 -272
WIRE -560 -256 -560 -288
WIRE -464 -256 -464 -288
WIRE -112 -256 -112 -288
WIRE -16 -256 -16 -272
WIRE 256 -208 112 -208
WIRE 336 -208 256 -208
WIRE 400 -208 336 -208
WIRE 256 -192 256 -208
WIRE 256 -192 176 -192
WIRE 400 -192 400 -208
WIRE -656 -176 -656 -192
WIRE -560 -176 -560 -192
WIRE -464 -176 -464 -192
WIRE -336 -176 -336 -272
WIRE 256 -176 256 -192
WIRE 128 -112 112 -112
WIRE 256 -96 256 -112
WIRE 256 -96 208 -96
WIRE 400 -96 400 -112
WIRE 256 -80 256 -96
WIRE -336 -16 -336 -96
WIRE -240 -16 -336 -16
WIRE 128 -16 128 -112
WIRE 128 -16 112 -16
WIRE -336 0 -336 -16
WIRE -240 80 -256 80
WIRE 176 80 176 -192
WIRE 176 80 112 80
WIRE -336 96 -336 80
WIRE 336 144 336 -208
WIRE 208 176 208 -96
WIRE 208 176 112 176
WIRE -320 272 -336 272
WIRE -240 272 -256 272
WIRE 336 272 336 208
WIRE 336 272 112 272
WIRE 336 288 336 272
WIRE -112 336 -112 320
WIRE -16 336 -16 320
WIRE 336 384 336 368
FLAG -656 -176 0
FLAG -656 -288 IN
FLAG 256 -80 0
FLAG 400 -208 OUT
FLAG -112 336 0
FLAG 336 384 0
FLAG -560 -176 0
FLAG -336 272 0
FLAG -256 80 0
FLAG -464 -176 0
FLAG 400 -96 0
FLAG -336 96 0
FLAG -16 336 0
SYMBOL LTM4611 -64 32 R0
WINDOW 3 5 135 Center 0
SYMATTR InstName U1
SYMBOL VOLTAGE -656 -288 R0
WINDOW 3 27 94 Left 0
WINDOW 123 0 0 Left 0
WINDOW 39 0 0 Left 0
SYMATTR Value 5
SYMATTR InstName V1
SYMBOL cap 240 -176 R0
WINDOW 123 24 80 Left 0
WINDOW 3 24 54 Left 0
SYMATTR Value2 x4
SYMATTR Value 100µ
SYMATTR InstName C1
SYMATTR SpiceLine Rser=5m Lser=0.8n
SYMBOL res 320 272 R0
SYMATTR InstName R1
SYMATTR Value 48.7K
SYMBOL cap -576 -256 R0
SYMATTR InstName C2
SYMATTR Value 120µ
SYMATTR SpiceLine V=16 Rser=15m
SYMBOL cap -256 256 R90
WINDOW 0 0 32 VBottom 0
WINDOW 3 32 32 VTop 0
SYMATTR InstName C3
SYMATTR Value 0.001µ
SYMBOL cap 320 144 R0
SYMATTR InstName C4
SYMATTR Value 47p
SYMBOL cap -480 -256 R0
WINDOW 3 37 36 Left 0
WINDOW 40 33 65 Left 0
SYMATTR InstName C5
SYMATTR Value 47µ
SYMATTR SpiceLine V=16 Rser=5m
SYMATTR SpiceLine2 x2
SYMBOL res -352 -16 R0
SYMATTR InstName R2
SYMATTR Value 5K
SYMBOL res -352 -80 M180
WINDOW 0 36 76 Left 0
WINDOW 3 36 40 Left 0
SYMATTR InstName R3
SYMATTR Value 15K
SYMBOL res 384 -208 R0
SYMATTR InstName Rload
SYMATTR Value 0.12
TEXT 504 288 Left 0 !.tran 1m startup
TEXT -688 392 Left 0 ;Note:\n  If the simulation model is not found please update with the "Sync Release" command from the "Tools" menu.\n  It remains the customer's responsibility to verify proper and reliable operation in the actual application.\n  Component substitution and printed circuit board layout may significantly affect circuit performance or reliability\n  Contact your local sales representative for assistance. This circuit is distributed to customers only for use with LTC parts\n  Copyright © 2010 Linear Technology Inc. All rights reserved.
TEXT -64 -304 Bottom 0 ;LTM4611- 15A, Ultralow Vin,  Step-Down DC/DC µmodule\nInput : 5 V, Output: 1.8 V@15A
