Version 4
SHEET 1 1748 692
WIRE 96 48 0 48
WIRE 192 48 96 48
WIRE 384 48 192 48
WIRE 0 64 0 48
WIRE 96 64 96 48
WIRE 192 64 192 48
WIRE 384 80 384 48
WIRE 512 80 512 64
WIRE 672 80 640 80
WIRE 784 80 672 80
WIRE 896 80 784 80
WIRE 976 80 896 80
WIRE 1088 80 976 80
WIRE 784 96 784 80
WIRE 896 96 896 80
WIRE 976 96 976 80
WIRE 1088 96 1088 80
WIRE 272 128 256 128
WIRE 640 128 640 80
WIRE 640 128 624 128
WIRE 0 160 0 144
WIRE 96 160 96 128
WIRE 192 160 192 128
WIRE 272 176 256 176
WIRE 784 176 784 160
WIRE 784 176 624 176
WIRE 672 192 672 80
WIRE 784 192 784 176
WIRE 896 192 896 160
WIRE 976 192 976 160
WIRE 1088 192 1088 176
WIRE 272 224 256 224
WIRE 640 224 624 224
WIRE 272 272 256 272
WIRE 672 272 624 272
WIRE 784 288 784 272
WIRE 384 336 384 320
WIRE 512 336 512 320
FLAG 384 336 0
FLAG 512 336 0
FLAG 784 288 0
FLAG 0 48 IN
FLAG 1088 80 OUT
FLAG 192 160 0
FLAG 0 160 0
FLAG 896 192 0
FLAG 976 192 0
FLAG 1088 192 0
FLAG 96 160 0
SYMBOL voltage 0 48 R0
WINDOW 123 0 0 Left 2
WINDOW 39 12 125 Left 2
SYMATTR Value2 ""
SYMATTR SpiceLine ""
SYMATTR InstName V1
SYMATTR Value 12
SYMBOL PowerProducts\\LTM4600 448 192 R0
SYMATTR InstName U1
SYMBOL res 768 176 R0
SYMATTR InstName R1
SYMATTR Value 66.5K
SYMBOL res 656 176 R0
SYMATTR InstName R2
SYMATTR Value 100K
SYMBOL cap 768 96 R0
SYMATTR InstName C1
SYMATTR Value 100p
SYMBOL cap 880 96 R0
SYMATTR InstName C2
SYMATTR Value 22µ
SYMATTR SpiceLine Rser=5m
SYMBOL cap 176 64 R0
WINDOW 3 33 33 Left 2
WINDOW 123 26 58 Left 2
SYMATTR InstName C3
SYMATTR Value 10µ
SYMATTR Value2 x2
SYMBOL cap 960 96 R0
WINDOW 40 24 56 Left 2
WINDOW 3 36 32 Left 2
SYMATTR SpiceLine2 x2
SYMATTR Value 100µ
SYMATTR InstName C4
SYMATTR SpiceLine Rser=3m
SYMBOL res 1072 80 R0
SYMATTR InstName Rload
SYMATTR Value .15
SYMATTR SpiceLine ""
SYMBOL cap 80 64 R0
SYMATTR InstName C5
SYMATTR Value 150µ
SYMATTR SpiceLine ""
TEXT 880 320 Left 2 !.tran 2.3m startup
TEXT 560 -8 Center 2 ;LTM4600 - 10A High Efficiency DC/DC µModule\nInput: 5V to 20V     Output: 1.5V @ 10A
TEXT -40 344 Left 2 ;Note:\n  If the simulation model is not found please update with the "Sync Release" command from the "Tools" menu.\n  It remains the customer's responsibility to verify proper and reliable operation in the actual application.\n  Component substitution and printed circuit board layout may significantly affect circuit performance or reliability\n  Contact your local sales representative for assistance. This circuit is distributed to customers only for use with LTC parts\n  Copyright © 2006 Linear Technology Inc. All rights reserved.
