Version 4
SHEET 1 1240 796
WIRE -400 -16 -480 -16
WIRE -320 -16 -400 -16
WIRE -240 -16 -320 -16
WIRE -160 -16 -240 -16
WIRE 128 -16 -160 -16
WIRE -480 0 -480 -16
WIRE -400 0 -400 -16
WIRE -320 0 -320 -16
WIRE -240 0 -240 -16
WIRE 128 0 128 -16
WIRE -160 16 -160 -16
WIRE 16 48 -80 48
WIRE 448 48 368 48
WIRE 544 48 448 48
WIRE 656 48 544 48
WIRE 448 64 448 48
WIRE 544 64 544 48
WIRE 656 64 656 48
WIRE -480 112 -480 80
WIRE -400 112 -400 64
WIRE -320 112 -320 64
WIRE -240 112 -240 64
WIRE -160 128 -160 96
WIRE 16 128 -160 128
WIRE 448 128 368 128
WIRE -80 144 -80 48
WIRE 448 144 448 128
WIRE 544 160 544 128
WIRE 656 160 656 144
WIRE 16 208 0 208
WIRE 384 208 368 208
WIRE 448 240 448 224
WIRE -80 288 -80 224
WIRE 0 288 0 208
WIRE 0 288 -80 288
WIRE 16 288 0 288
WIRE 384 288 368 288
WIRE 16 368 0 368
WIRE 384 368 368 368
WIRE -64 448 -80 448
WIRE 16 448 0 448
WIRE 384 448 368 448
WIRE -64 528 -80 528
WIRE 16 528 0 528
WIRE 384 528 368 528
WIRE 480 528 464 528
WIRE 128 592 128 576
WIRE 256 592 256 576
FLAG 128 592 0
FLAG 256 592 0
FLAG 544 160 0
FLAG 656 160 0
FLAG -480 112 0
FLAG -80 528 0
FLAG 656 48 OUT
FLAG -480 -16 IN
FLAG -80 448 0
FLAG 480 528 0
FLAG 384 288 0
FLAG 448 240 0
FLAG -400 112 0
FLAG -240 112 0
FLAG -320 112 0
FLAG 384 368 0
FLAG 384 448 0
SYMBOL cap 528 64 R0
WINDOW 123 29 67 Left 2
WINDOW 3 36 35 Left 2
SYMATTR Value2 x4
SYMATTR Value 47µ
SYMATTR InstName C1
SYMATTR SpiceLine Rser=4m
SYMBOL cap 0 512 R90
WINDOW 0 0 32 VBottom 2
WINDOW 3 32 32 VTop 2
WINDOW 123 60 32 VTop 2
SYMATTR InstName C2
SYMATTR Value 10µ
SYMATTR Value2 x3
SYMATTR SpiceLine Rser=2m
SYMBOL voltage -480 -16 R0
WINDOW 123 0 0 Left 2
WINDOW 39 0 0 Left 2
SYMATTR InstName V1
SYMATTR Value 36
SYMBOL cap 0 432 R90
WINDOW 0 0 32 VBottom 2
WINDOW 3 32 32 VTop 2
SYMATTR InstName C3
SYMATTR Value .002µ
SYMBOL res 368 544 R270
WINDOW 0 32 56 VTop 2
WINDOW 3 0 56 VBottom 2
SYMATTR InstName R4
SYMATTR Value 392K
SYMBOL res 432 128 R0
SYMATTR InstName R5
SYMATTR Value 5.23K
SYMBOL cap 432 64 R0
WINDOW 3 24 54 Left 2
SYMATTR Value 47p
SYMATTR InstName C4
SYMBOL res 640 48 R0
SYMATTR InstName Rload
SYMATTR Value 1.5
SYMBOL PowerProducts\\LTM4613 192 288 R0
SYMATTR InstName U1
SYMBOL cap -416 0 R0
SYMATTR InstName C5
SYMATTR Value 100µ
SYMATTR SpiceLine Rser=50m
SYMBOL cap -336 0 R0
SYMATTR InstName C6
SYMATTR Value 10µ
SYMATTR SpiceLine Rser=2m
SYMBOL cap -256 0 R0
SYMATTR InstName C7
SYMATTR Value 10µ
SYMATTR SpiceLine Rser=2m
SYMBOL res -96 128 R0
SYMATTR Value 51K
SYMATTR InstName R1
SYMBOL res -176 0 R0
SYMATTR InstName R2
SYMATTR Value 51K
TEXT 552 512 Left 2 !.tran 1.5m startup
TEXT -408 608 Left 2 ;Note:\n  If the simulation model is not found please update with the "Sync Release" command from the "Tools" menu.\n  It remains the customer's responsibility to verify proper and reliable operation in the actual application.\n  Component substitution and printed circuit board layout may significantly affect circuit performance or reliability\n  Contact your local sales representative for assistance. This circuit is distributed to customers only for use with LTC parts\n  Copyright © 2011 Linear Technology Inc. All rights reserved.
TEXT 208 -32 Bottom 2 ;LTM4613 - 36 Vin, 15 Vout 8A Step Down DC/DC µModule Regulator\nInput: 36V     Output: 12V @ 8A
