Version 4
SHEET 1 1792 904
WIRE 32 48 -64 48
WIRE 128 48 32 48
WIRE 208 48 128 48
WIRE 416 48 208 48
WIRE -64 80 -64 48
WIRE 208 80 208 48
WIRE 416 80 416 48
WIRE 32 96 32 48
WIRE 128 96 128 48
WIRE 768 128 688 128
WIRE 896 128 768 128
WIRE 976 128 896 128
WIRE 1072 128 976 128
WIRE 1136 128 1072 128
WIRE 896 160 896 128
WIRE 976 160 976 128
WIRE 1136 160 1136 128
WIRE -64 192 -64 160
WIRE 32 192 32 160
WIRE 128 192 128 160
WIRE 208 192 208 160
WIRE 304 192 208 192
WIRE 768 192 688 192
WIRE 768 208 768 192
WIRE 720 256 688 256
WIRE 1136 256 1136 240
WIRE 1136 256 1088 256
WIRE 896 272 896 224
WIRE 976 272 976 224
WIRE 1136 272 1136 256
WIRE 768 304 768 288
WIRE 304 320 256 320
WIRE 720 320 720 256
WIRE 720 320 688 320
WIRE 256 384 256 320
WIRE 304 384 256 384
WIRE 1072 384 1072 128
WIRE 1072 384 688 384
WIRE 1088 448 1088 256
WIRE 1088 448 688 448
WIRE 304 576 224 576
WIRE 224 592 224 576
WIRE 416 656 416 640
WIRE 576 656 576 640
WIRE 224 672 224 656
FLAG 416 656 0
FLAG 576 656 0
FLAG 768 304 0
FLAG -64 48 IN
FLAG 1136 128 OUT
FLAG 128 192 0
FLAG -64 192 0
FLAG 896 272 0
FLAG 976 272 0
FLAG 1136 272 0
FLAG 32 192 0
FLAG 224 672 0
SYMBOL voltage -64 64 R0
WINDOW 123 0 0 Left 0
WINDOW 39 12 125 Left 0
SYMATTR InstName V1
SYMATTR Value 12
SYMBOL res 752 192 R0
SYMATTR InstName R1
SYMATTR Value 40.2K
SYMBOL cap 880 160 R0
SYMATTR InstName C1
SYMATTR Value 22µ
SYMATTR SpiceLine Rser=5m
SYMBOL cap 112 96 R0
SYMATTR InstName C2
SYMATTR Value 47µ
SYMBOL cap 960 160 R0
WINDOW 40 24 92 Left 0
SYMATTR SpiceLine2 x2
SYMATTR InstName C3
SYMATTR Value 100µ
SYMATTR SpiceLine Rser=3m
SYMBOL polcap 16 96 R0
SYMATTR InstName C4
SYMATTR Value 150µ
SYMATTR SpiceLine Rser=9m
SYMBOL PowerProducts\\LTM4601 496 336 R0
SYMATTR InstName U1
SYMBOL res 192 64 R0
SYMATTR InstName R2
SYMATTR Value 100k
SYMBOL cap 752 128 R0
WINDOW 0 28 15 Left 0
WINDOW 3 29 55 Left 0
SYMATTR InstName C5
SYMATTR Value 100p
SYMBOL cap 208 592 R0
SYMATTR InstName C6
SYMATTR Value 2200p
SYMBOL res 1120 144 R0
SYMATTR InstName Rload
SYMATTR Value .125
TEXT 904 560 Left 0 !.tran 500u
TEXT 528 32 Bottom 0 ;LTM4601 - 12A, High Efficiency Step-Down DC/DC µModule\nInput: 12V     Output: 1.5V @ 12A
TEXT -72 704 Left 0 ;Note:\n  If the simulation model is not found please update with the "Sync Release" command from the "Tools" menu.\n  It remains the customer's responsibility to verify proper and reliable operation in the actual application.\n  Component substitution and printed circuit board layout may significantly affect circuit performance or reliability\n  Contact your local sales representative for assistance. This circuit is distributed to customers only for use with LTC parts\n  Copyright © 2006 Linear Technology Inc. All rights reserved.
