Version 4
SHEET 1 1988 1080
WIRE -528 -608 -640 -608
WIRE -160 -608 -528 -608
WIRE -640 -592 -640 -608
WIRE -528 -592 -528 -608
WIRE -64 -576 -432 -576
WIRE 272 -576 -64 -576
WIRE -352 -512 -368 -512
WIRE -256 -512 -272 -512
WIRE -640 -496 -640 -512
WIRE -528 -496 -528 -528
WIRE 272 -480 272 -576
WIRE -256 -464 -256 -512
WIRE -160 -464 -160 -608
WIRE -64 -464 -64 -576
WIRE -432 -416 -432 -576
WIRE -432 -304 -432 -336
WIRE -352 -304 -432 -304
WIRE 272 -304 272 -400
WIRE 272 -304 224 -304
WIRE -352 -208 -368 -208
WIRE 240 -208 224 -208
WIRE -576 -112 -912 -112
WIRE -464 -112 -576 -112
WIRE -368 -112 -464 -112
WIRE -352 -112 -368 -112
WIRE 416 -112 224 -112
WIRE 528 -112 416 -112
WIRE 752 -112 528 -112
WIRE -912 -96 -912 -112
WIRE -576 -96 -576 -112
WIRE -464 -96 -464 -112
WIRE 416 -96 416 -112
WIRE 528 -96 528 -112
WIRE 752 -96 752 -112
WIRE 752 -96 672 -96
WIRE 752 -80 752 -96
WIRE -368 -16 -368 -112
WIRE -352 -16 -368 -16
WIRE 368 -16 224 -16
WIRE -912 0 -912 -16
WIRE -576 0 -576 -32
WIRE -464 0 -464 -32
WIRE 416 0 416 -32
WIRE 528 0 528 -32
WIRE 752 16 752 0
WIRE 752 16 704 16
WIRE 752 32 752 16
WIRE -448 80 -464 80
WIRE -352 80 -368 80
WIRE 240 80 224 80
WIRE 336 80 320 80
WIRE -640 176 -688 176
WIRE -528 176 -560 176
WIRE -352 176 -528 176
WIRE 416 176 224 176
WIRE 464 176 416 176
WIRE 576 176 544 176
WIRE -688 192 -688 176
WIRE -528 192 -528 176
WIRE 416 192 416 176
WIRE 576 192 576 176
WIRE -688 272 -688 256
WIRE -528 272 -528 256
WIRE -432 272 -448 272
WIRE -352 272 -368 272
WIRE 240 272 224 272
WIRE 320 272 304 272
WIRE 416 272 416 256
WIRE 576 272 576 256
WIRE -352 368 -368 368
WIRE -256 448 -256 432
WIRE -160 448 -160 432
WIRE 128 448 128 432
WIRE 368 448 368 -16
WIRE 368 448 128 448
WIRE 32 464 32 432
WIRE 672 464 672 -96
WIRE 672 464 32 464
WIRE -64 480 -64 432
WIRE 704 480 704 16
WIRE 704 480 -64 480
FLAG -640 -496 0
FLAG -640 -608 IN
FLAG 528 0 0
FLAG 752 -112 OUT2
FLAG -256 448 0
FLAG -464 80 0
FLAG -448 272 0
FLAG -528 -496 0
FLAG 752 32 0
FLAG 320 272 0
FLAG -576 0 0
FLAG -464 0 0
FLAG -912 0 0
FLAG -912 -112 OUT1
FLAG 336 80 0
FLAG -368 -512 0
FLAG 416 0 0
FLAG -160 448 0
FLAG -368 368 0
FLAG -528 272 0
FLAG -688 272 0
FLAG 576 272 0
FLAG 416 272 0
SYMBOL VOLTAGE -640 -608 R0
WINDOW 3 27 94 Left 2
WINDOW 123 0 0 Left 2
WINDOW 39 0 0 Left 2
SYMATTR Value 12
SYMATTR InstName V1
SYMBOL res -352 64 R90
WINDOW 0 0 56 VBottom 2
WINDOW 3 32 56 VTop 2
SYMATTR InstName R1
SYMATTR Value 40.2K
SYMBOL cap -368 256 R90
WINDOW 0 0 32 VBottom 2
WINDOW 3 32 32 VTop 2
SYMATTR InstName C1
SYMATTR Value .001µ
SYMBOL cap -544 -592 R0
WINDOW 40 24 61 Left 2
WINDOW 3 37 35 Left 2
SYMATTR SpiceLine2 x4
SYMATTR Value 22µ
SYMATTR InstName C2
SYMATTR SpiceLine V=35 Rser=5m
SYMBOL cap 240 288 R270
WINDOW 0 32 32 VTop 2
WINDOW 3 0 32 VBottom 2
SYMATTR InstName C3
SYMATTR Value .001µ
SYMBOL polcap -592 -96 R0
WINDOW 3 39 32 Left 2
WINDOW 123 24 61 Left 2
SYMATTR Value 470µ
SYMATTR Value2 x2
SYMATTR InstName C4
SYMATTR Description Capacitor
SYMATTR Type cap
SYMATTR SpiceLine V=4 Irms=2.8 Rser=5m Lser=0
SYMBOL res 224 96 R270
WINDOW 0 32 56 VTop 2
WINDOW 3 0 56 VBottom 2
SYMATTR InstName R2
SYMATTR Value 90.9K
SYMBOL res -256 -528 R90
WINDOW 0 0 56 VBottom 2
WINDOW 3 32 56 VTop 2
SYMATTR InstName R3
SYMATTR Value 121K
SYMBOL polcap 400 -96 R0
WINDOW 3 37 34 Left 2
WINDOW 123 26 61 Left 2
SYMATTR Value 470µ
SYMATTR Value2 x2
SYMATTR InstName C5
SYMATTR Description Capacitor
SYMATTR Type cap
SYMATTR SpiceLine V=4 Irms=2.8 Rser=5m Lser=0
SYMBOL res -448 -432 R0
SYMATTR InstName R4
SYMATTR Value 10K
SYMBOL res 256 -496 R0
SYMATTR InstName R5
SYMATTR Value 10K
SYMBOL current -912 -96 R0
WINDOW 123 24 101 Left 2
SYMATTR Value2 680u 12.5 681u 0)
SYMATTR InstName Iload1
SYMATTR Value PWL(600u 0 601u 12.5
SYMBOL current 752 -80 R0
WINDOW 123 24 101 Left 2
SYMATTR Value2 680u 12.5 681u 0)
SYMATTR Value PWL(600u 0 601u 12.5
SYMATTR InstName Iload2
SYMBOL cap -480 -96 R0
WINDOW 40 26 60 Left 2
WINDOW 3 38 32 Left 2
SYMATTR SpiceLine2 x5
SYMATTR Value 100µ
SYMATTR InstName C6
SYMATTR SpiceLine V=6.3 Rser=2m
SYMBOL cap 512 -96 R0
WINDOW 40 26 60 Left 2
WINDOW 3 38 32 Left 2
SYMATTR SpiceLine2 x5
SYMATTR Value 100µ
SYMATTR InstName C7
SYMATTR SpiceLine V=6.3 Rser=2m
SYMBOL PowerProducts\\LTM4650-1 -64 -16 R0
SYMATTR InstName U1
SYMBOL cap -544 256 M180
WINDOW 0 24 56 Left 2
WINDOW 3 24 8 Left 2
SYMATTR InstName C8
SYMATTR Value 47p
SYMBOL res -656 192 R270
WINDOW 0 32 56 VTop 2
WINDOW 3 0 56 VBottom 2
SYMATTR InstName R6
SYMATTR Value 21K
SYMBOL cap -704 256 M180
WINDOW 0 24 56 Left 2
WINDOW 3 24 8 Left 2
SYMATTR InstName C9
SYMATTR Value 3300p
SYMBOL res 448 192 R270
WINDOW 0 32 56 VTop 2
WINDOW 3 0 56 VBottom 2
SYMATTR InstName R7
SYMATTR Value 20K
SYMBOL cap 560 256 M180
WINDOW 0 24 56 Left 2
WINDOW 3 24 8 Left 2
SYMATTR InstName C10
SYMATTR Value 4700p
SYMBOL cap 400 256 M180
WINDOW 0 24 56 Left 2
WINDOW 3 24 8 Left 2
SYMATTR InstName C11
SYMATTR Value 220p
TEXT 416 424 Left 2 !.tran 750u startup
TEXT -688 480 Left 2 ;Note:\n  Smaller values are used for TK/SS capacitors to reduce simulation time. See datasheet for typical values.\n  If the simulation model is not found please update with the "Sync Release" command from the "Tools" menu.\n  It remains the customer's responsibility to verify proper and reliable operation in the actual application.\n  Component substitution and printed circuit board layout may significantly affect circuit performance or reliability\n  Contact your local sales representative for assistance. This circuit is distributed to customers only for use with LTC parts\n  Copyright © 2016 Linear Technology Inc. All rights reserved.
TEXT -96 -632 Bottom 2 ;LTM4650 - Dual 25A or Single 50A DC/DC µModule Regulator\nHigh Efficiency Dual 25A Step-Down Regulator with Output Tracking\nInput : 4.5V to 15V     Outputs: 1.5 V @ 25A & 1.0V @ 25A
