Version 4
SHEET 1 1988 1080
WIRE -544 -576 -656 -576
WIRE -160 -576 -544 -576
WIRE -656 -560 -656 -576
WIRE -64 -560 -432 -560
WIRE 272 -560 -64 -560
WIRE -544 -544 -544 -576
WIRE -352 -512 -368 -512
WIRE -256 -512 -272 -512
WIRE -64 -512 -64 -560
WIRE -16 -512 -64 -512
WIRE 80 -512 48 -512
WIRE -256 -464 -256 -512
WIRE -160 -464 -160 -576
WIRE -64 -464 -64 -512
WIRE 272 -464 272 -560
WIRE -656 -448 -656 -480
WIRE -544 -448 -544 -480
WIRE -432 -432 -432 -560
WIRE -432 -304 -432 -352
WIRE -352 -304 -432 -304
WIRE 272 -304 272 -384
WIRE 272 -304 224 -304
WIRE -352 -208 -416 -208
WIRE 272 -208 224 -208
WIRE -1264 -112 -1632 -112
WIRE -960 -112 -1264 -112
WIRE -768 -112 -960 -112
WIRE -672 -112 -768 -112
WIRE -576 -112 -672 -112
WIRE -352 -112 -576 -112
WIRE 256 -112 224 -112
WIRE 320 -112 256 -112
WIRE 432 -112 320 -112
WIRE 528 -112 432 -112
WIRE 688 -112 528 -112
WIRE 864 -112 688 -112
WIRE -960 -96 -960 -112
WIRE -800 -96 -960 -96
WIRE -768 -96 -768 -112
WIRE -672 -96 -672 -112
WIRE 688 -96 688 -112
WIRE -1632 -80 -1632 -112
WIRE -960 -80 -960 -96
WIRE 432 -80 432 -112
WIRE 528 -80 528 -112
WIRE 864 -80 864 -112
WIRE -576 -64 -576 -112
WIRE 320 -64 320 -112
WIRE -352 -16 -480 -16
WIRE 256 -16 256 -112
WIRE 256 -16 224 -16
WIRE -768 0 -768 -32
WIRE -672 0 -672 -32
WIRE -960 16 -960 0
WIRE -816 16 -960 16
WIRE 320 16 320 0
WIRE 320 16 240 16
WIRE 432 16 432 -16
WIRE 528 16 528 -16
WIRE 688 16 688 -16
WIRE 864 16 864 0
WIRE -1632 32 -1632 0
WIRE -960 32 -960 16
WIRE -576 80 -576 0
WIRE -352 80 -576 80
WIRE 240 80 240 16
WIRE 240 80 224 80
WIRE 336 80 320 80
WIRE -576 96 -576 80
WIRE -576 192 -576 176
WIRE -432 272 -448 272
WIRE -352 272 -368 272
WIRE 240 272 224 272
WIRE 320 272 304 272
WIRE -352 368 -384 368
WIRE -256 448 -256 432
WIRE -160 448 -160 432
WIRE -816 496 -816 16
WIRE -64 496 -64 432
WIRE -64 496 -816 496
WIRE -800 512 -800 -96
WIRE 32 512 32 432
WIRE 32 512 -800 512
WIRE -480 528 -480 -16
WIRE 128 528 128 432
WIRE 128 528 -480 528
FLAG -656 -448 0
FLAG -656 -576 IN
FLAG 528 16 0
FLAG 688 -112 OUT2
FLAG -256 448 0
FLAG -576 192 0
FLAG -448 272 0
FLAG -544 -448 0
FLAG 688 16 0
FLAG 320 272 0
FLAG -768 0 0
FLAG -672 0 0
FLAG -960 32 0
FLAG -1264 -112 OUT1
FLAG 336 80 0
FLAG -368 -512 0
FLAG 432 16 0
FLAG -160 448 0
FLAG -384 368 0
FLAG -1632 32 0
FLAG 80 -512 0
FLAG 864 16 0
SYMBOL VOLTAGE -656 -576 R0
WINDOW 3 27 94 Left 2
WINDOW 123 0 0 Left 2
WINDOW 39 0 0 Left 2
SYMATTR Value 12
SYMATTR InstName V1
SYMBOL cap 512 -80 R0
WINDOW 3 24 54 Left 2
SYMATTR Value 100µ
SYMATTR InstName C1
SYMATTR SpiceLine Rser=5m Lser=0.8n
SYMBOL res -592 80 R0
SYMATTR InstName R1
SYMATTR Value 13.3K
SYMBOL cap -368 256 R90
WINDOW 0 0 32 VBottom 2
WINDOW 3 32 32 VTop 2
SYMATTR InstName C2
SYMATTR Value .001µ
SYMBOL cap -560 -544 R0
WINDOW 40 26 60 Left 2
WINDOW 3 38 32 Left 2
SYMATTR SpiceLine2 x4
SYMATTR Value 22µ
SYMATTR InstName C3
SYMATTR SpiceLine V=35 Rser=5m
SYMBOL cap 240 288 R270
WINDOW 0 32 32 VTop 2
WINDOW 3 0 32 VBottom 2
SYMATTR InstName C4
SYMATTR Value .001µ
SYMBOL cap -688 -96 R0
WINDOW 3 24 54 Left 2
SYMATTR Value 100µ
SYMATTR InstName C5
SYMATTR SpiceLine Rser=5m Lser=0.8n
SYMBOL polcap -784 -96 R0
WINDOW 3 24 64 Left 2
SYMATTR Value 330µ
SYMATTR InstName C6
SYMATTR Description Capacitor
SYMATTR Type cap
SYMATTR SpiceLine V=4 Irms=2.8 Rser=0.009 Lser=0
SYMBOL res 224 96 R270
WINDOW 0 32 56 VTop 2
WINDOW 3 0 56 VBottom 2
SYMATTR InstName R2
SYMATTR Value 8.25K
SYMBOL res -256 -528 R90
WINDOW 0 0 56 VBottom 2
WINDOW 3 32 56 VTop 2
SYMATTR InstName R3
SYMATTR Value 190K
SYMBOL polcap 416 -80 R0
WINDOW 3 24 64 Left 2
SYMATTR Value 330µ
SYMATTR InstName C7
SYMATTR Description Capacitor
SYMATTR Type cap
SYMATTR SpiceLine V=4 Irms=2.8 Rser=0.009 Lser=0
SYMBOL res -448 -448 R0
SYMATTR InstName R4
SYMATTR Value 10K
SYMBOL res 256 -480 R0
SYMATTR InstName R5
SYMATTR Value 10K
SYMBOL res -976 -96 R0
SYMATTR InstName Rload1
SYMATTR Value 0.5
SYMBOL res 672 -112 R0
SYMATTR InstName Rload2
SYMATTR Value 0.768
SYMBOL PowerProducts\\LTM4620A -64 -16 R0
SYMATTR InstName U1
SYMBOL cap -592 0 M180
WINDOW 0 24 56 Left 2
WINDOW 3 24 8 Left 2
SYMATTR InstName C8
SYMATTR Value 47p
SYMBOL cap 304 0 M180
WINDOW 0 24 56 Left 2
WINDOW 3 24 8 Left 2
SYMATTR InstName C9
SYMATTR Value 33p
SYMBOL load2 864 -80 R0
SYMATTR Value PWL(0 0 0.7m 0 0.701m 6.5 0.8m 6.5 0.801m 0)
SYMATTR InstName ILoad1
SYMBOL load2 -1632 -80 R0
SYMATTR Value PWL(0 0 0.7m 0 0.701m 6.5 0.8m 6.5 0.801m 0)
SYMATTR InstName ILoad2
SYMBOL cap 48 -528 R90
WINDOW 0 0 32 VBottom 2
WINDOW 3 32 32 VTop 2
SYMATTR InstName C10
SYMATTR Value 4.7µ
TEXT 544 336 Left 2 !.tran 900u startup
TEXT -672 552 Left 2 ;Note:\n  Smaller values are used for TK/SS capacitors to reduce simulation time. See datasheet for typical values.\n  If the simulation model is not found please update with the "Sync Release" command from the "Tools" menu.\n  It remains the customer's responsibility to verify proper and reliable operation in the actual application.\n  Component substitution and printed circuit board layout may significantly affect circuit performance or reliability\n  Contact your local sales representative for assistance. This circuit is distributed to customers only for use with LTC parts\n  Copyright © 2013 Linear Technology Inc. All rights reserved.
TEXT -112 -592 Bottom 2 ;LTM4620A - Dual 13A, Step-Down DC/DC µModule Regulator\nHigh Efficiency Dual 13A Step-Down Regulator\nInput : 5.5V to 16V     Outputs: 3.3 V @ 13A & 5V @ 13A
