Version 4
SHEET 1 1792 904
WIRE 16 48 -80 48
WIRE 112 48 16 48
WIRE 208 48 112 48
WIRE 496 48 208 48
WIRE -80 80 -80 48
WIRE 208 80 208 48
WIRE 496 80 496 48
WIRE 16 96 16 48
WIRE 112 96 112 48
WIRE 752 128 688 128
WIRE -80 192 -80 160
WIRE 16 192 16 160
WIRE 112 192 112 160
WIRE 208 192 208 160
WIRE 304 192 208 192
WIRE 752 192 752 128
WIRE 752 192 688 192
WIRE 880 192 752 192
WIRE 960 192 880 192
WIRE 1056 192 960 192
WIRE 880 224 880 192
WIRE 960 224 960 192
WIRE 1056 224 1056 192
WIRE 304 256 272 256
WIRE 752 256 688 256
WIRE 752 272 752 256
WIRE 304 320 272 320
WIRE 880 336 880 288
WIRE 960 336 960 288
WIRE 1056 336 1056 304
WIRE 752 368 752 352
WIRE 272 384 272 320
WIRE 304 384 272 384
WIRE 752 448 688 448
WIRE 752 464 752 448
WIRE 752 544 752 528
WIRE 416 592 416 576
WIRE 576 592 576 576
FLAG 416 592 0
FLAG 576 592 0
FLAG 752 368 0
FLAG -80 48 IN
FLAG 1056 192 OUT
FLAG 112 192 0
FLAG -80 192 0
FLAG 880 336 0
FLAG 960 336 0
FLAG 1056 336 0
FLAG 16 192 0
FLAG 752 544 0
SYMBOL voltage -80 64 R0
WINDOW 123 0 0 Left 0
WINDOW 39 12 125 Left 0
SYMATTR InstName V1
SYMATTR Value 12
SYMBOL res 736 256 R0
SYMATTR InstName R1
SYMATTR Value 40.2K
SYMBOL cap 864 224 R0
SYMATTR InstName C1
SYMATTR Value 22µ
SYMATTR SpiceLine Rser=5m
SYMBOL cap 96 96 R0
SYMATTR InstName C2
SYMATTR Value 47µ
SYMBOL cap 944 224 R0
WINDOW 40 24 92 Left 0
SYMATTR InstName C3
SYMATTR Value 100µ
SYMATTR SpiceLine Rser=3m
SYMBOL polcap 0 96 R0
SYMATTR InstName C4
SYMATTR Value 150µ
SYMATTR SpiceLine Rser=9m
SYMBOL res 192 64 R0
SYMATTR InstName R2
SYMATTR Value 100K
SYMBOL cap 736 192 R0
WINDOW 0 43 20 Left 0
WINDOW 3 34 59 Left 0
SYMATTR InstName C5
SYMATTR Value 100p
SYMBOL cap 736 464 R0
SYMATTR InstName C6
SYMATTR Value 2200p
SYMBOL PowerProducts\\LTM4603-1 496 336 R0
SYMATTR InstName U1
SYMBOL res 1040 208 R0
SYMATTR InstName Rload
SYMATTR Value .3
TEXT 936 568 Left 0 !.tran .5m
TEXT 544 32 Bottom 0 ;LTM4603-1 - 5A, High Efficiency Step-Down DC/DC µModule\nInput: 12V     Output: 1.5V @ 5A
TEXT -104 616 Left 0 ;Note:\n  If the simulation model is not found please update with the "Sync Release" command from the "Tools" menu.\n  It remains the customer's responsibility to verify proper and reliable operation in the actual application.\n  Component substitution and printed circuit board layout may significantly affect circuit performance or reliability\n  Contact your local sales representative for assistance. This circuit is distributed to customers only for use with LTC parts\n  Copyright © 2006 Linear Technology Inc. All rights reserved.
