Version 4
SHEET 1 1304 844
WIRE -224 -112 -240 -112
WIRE -144 -112 -224 -112
WIRE -64 -112 -144 -112
WIRE 16 -112 -64 -112
WIRE 128 -112 16 -112
WIRE 432 -112 128 -112
WIRE -240 -96 -240 -112
WIRE -144 -96 -144 -112
WIRE -64 -96 -64 -112
WIRE 128 -64 128 -112
WIRE 320 -64 320 -80
WIRE -240 0 -240 -16
WIRE -144 0 -144 -32
WIRE -64 0 -64 -32
WIRE 16 0 16 -112
WIRE 32 0 16 0
WIRE 432 0 432 -112
WIRE 432 0 416 0
WIRE -240 192 -368 192
WIRE -160 192 -240 192
WIRE 32 192 -160 192
WIRE 576 192 416 192
WIRE 656 192 576 192
WIRE 736 192 656 192
WIRE -368 224 -368 192
WIRE -240 224 -240 192
WIRE -160 224 -160 192
WIRE 576 224 576 192
WIRE 656 224 656 192
WIRE 736 224 736 192
WIRE -64 288 -80 288
WIRE 32 288 16 288
WIRE 432 288 416 288
WIRE 528 288 512 288
WIRE -368 320 -368 304
WIRE -240 320 -240 288
WIRE -160 320 -160 288
WIRE 576 320 576 288
WIRE 656 320 656 288
WIRE 736 320 736 304
WIRE -48 480 -64 480
WIRE 32 480 16 480
WIRE 432 480 416 480
WIRE 512 480 496 480
WIRE 160 560 160 544
FLAG 160 560 0
FLAG -240 0 0
FLAG 528 288 0
FLAG -80 288 0
FLAG -160 320 0
FLAG -368 320 0
FLAG 576 320 0
FLAG 736 320 0
FLAG 736 192 OUT2
FLAG -368 192 OUT1
FLAG -224 -112 IN
FLAG -144 0 0
FLAG -64 0 0
FLAG -240 320 0
FLAG 656 320 0
FLAG -64 480 0
FLAG 512 480 0
FLAG 320 -80 0
SYMBOL PowerProducts\\LTM4622 224 240 R0
SYMATTR InstName U1
SYMBOL voltage -240 -112 R0
SYMATTR InstName V1
SYMATTR Value 12
SYMBOL res 416 304 R270
WINDOW 0 32 56 VTop 2
WINDOW 3 0 56 VBottom 2
SYMATTR InstName R1
SYMATTR Value 60.4K
SYMBOL res 32 272 R90
WINDOW 0 0 56 VBottom 2
WINDOW 3 32 56 VTop 2
SYMATTR InstName R2
SYMATTR Value 13.3K
SYMBOL cap -176 224 R0
SYMATTR InstName C1
SYMATTR Value 47µ
SYMATTR SpiceLine Rser=5m
SYMBOL res -384 208 R0
SYMATTR InstName Rload1
SYMATTR Value 1.32
SYMBOL cap 560 224 R0
SYMATTR InstName C2
SYMATTR Value 47µ
SYMATTR SpiceLine Rser=5m
SYMBOL res 720 208 R0
SYMATTR InstName Rload2
SYMATTR Value .48
SYMBOL polcap -160 -96 R0
SYMATTR InstName C3
SYMATTR Value 10µ
SYMATTR SpiceLine Rser=2m
SYMBOL cap -80 -96 R0
WINDOW 123 24 58 Left 2
WINDOW 3 37 32 Left 2
SYMATTR Value2 x2
SYMATTR Value 22µ
SYMATTR InstName C4
SYMATTR SpiceLine V=16 Irms=0 Rser=2m Lser=0
SYMBOL cap -256 224 R0
SYMATTR InstName C5
SYMATTR Value 22µ
SYMATTR SpiceLine Rser=5m
SYMBOL cap 640 224 R0
SYMATTR InstName C6
SYMATTR Value 22µ
SYMATTR SpiceLine Rser=5m
SYMBOL cap 16 464 R90
WINDOW 0 0 32 VBottom 2
WINDOW 3 32 32 VTop 2
SYMATTR InstName C7
SYMATTR Value .001µ
SYMBOL cap 432 464 M90
WINDOW 0 0 32 VBottom 2
WINDOW 3 32 32 VTop 2
SYMATTR InstName C8
SYMATTR Value .001µ
TEXT 624 480 Left 2 !.tran .7m startup
TEXT -352 576 Left 2 ;Note:\n  If the simulation model is not found please update with the "Sync Release" command from the "Tools" menu.\n  It remains the customer's responsibility to verify proper and reliable operation in the actual application.\n  Component substitution and printed circuit board layout may significantly affect circuit performance or reliability\n  Contact your local sales representative for assistance. This circuit is distributed to customers only for use with LTC parts\n  Copyright © 2016 Linear Technology Inc. All rights reserved.
TEXT 232 -160 Bottom 2 ;LTM4622 - Dual Ultrathin 2.5A or Single 5A Step-Down DC/DC µModule Regulator\nDual Step-Down Regulator\nInput: 3.6V to 20V   Outputs: 3.3V @ 2.5A, 1.2V @ 2.5A
