Version 4
SHEET 1 1980 1236
WIRE 1008 -256 48 -256
WIRE 784 -240 160 -240
WIRE 160 -224 160 -240
WIRE 560 -208 448 -208
WIRE 448 -192 448 -208
WIRE 560 -192 560 -208
WIRE 784 -192 784 -240
WIRE -160 -128 -272 -128
WIRE -112 -128 -160 -128
WIRE -32 -128 -112 -128
WIRE 112 -128 -32 -128
WIRE 160 -128 160 -144
WIRE 160 -128 112 -128
WIRE 240 -128 160 -128
WIRE 1008 -128 1008 -256
WIRE 1008 -128 880 -128
WIRE 1104 -128 1008 -128
WIRE 1184 -128 1104 -128
WIRE 1296 -128 1184 -128
WIRE -272 -112 -272 -128
WIRE 1104 -112 1104 -128
WIRE 1184 -112 1184 -128
WIRE 1296 -112 1296 -128
WIRE 1008 -96 1008 -128
WIRE -112 -80 -112 -128
WIRE 112 -80 112 -128
WIRE 240 -64 208 -64
WIRE -272 -16 -272 -32
WIRE 1104 -16 1104 -48
WIRE 1184 -16 1184 -48
WIRE 1296 -16 1296 -32
WIRE 208 0 208 -64
WIRE 240 0 208 0
WIRE 1008 0 1008 -32
WIRE 1008 0 880 0
WIRE -112 16 -112 -16
WIRE 112 16 112 -16
WIRE 1008 32 1008 0
WIRE 208 64 208 0
WIRE 240 64 208 64
WIRE 1008 128 1008 112
WIRE 1008 128 880 128
WIRE 1008 144 1008 128
WIRE 208 192 208 64
WIRE 240 192 208 192
WIRE 208 256 208 192
WIRE 240 256 208 256
WIRE 912 256 880 256
WIRE -32 320 -32 -128
WIRE 144 320 -32 320
WIRE 240 320 144 320
WIRE 992 320 880 320
WIRE 1104 320 992 320
WIRE 1184 320 1104 320
WIRE 1296 320 1184 320
WIRE -32 336 -32 320
WIRE 1104 336 1104 320
WIRE 1184 336 1184 320
WIRE 1296 336 1296 320
WIRE 992 352 992 320
WIRE 240 384 208 384
WIRE 48 416 48 -256
WIRE -32 432 -32 400
WIRE 1104 432 1104 400
WIRE 1184 432 1184 400
WIRE 1296 432 1296 416
WIRE 208 448 208 384
WIRE 240 448 208 448
WIRE 992 448 992 416
WIRE 992 448 880 448
WIRE 992 464 992 448
WIRE 48 512 48 496
WIRE 240 512 48 512
WIRE -160 528 -160 -128
WIRE 48 528 48 512
WIRE 992 576 992 544
WIRE 992 576 880 576
WIRE 992 592 992 576
WIRE -160 624 -160 608
WIRE -48 624 -160 624
WIRE 48 624 48 608
WIRE -160 640 -160 624
WIRE 208 640 208 448
WIRE 240 640 208 640
WIRE 144 656 144 320
WIRE 912 704 912 256
WIRE 912 704 880 704
WIRE -160 736 -160 720
WIRE 336 784 336 768
WIRE 448 784 448 768
WIRE 560 784 560 768
WIRE 672 784 672 768
WIRE 144 816 144 736
WIRE 784 816 784 768
WIRE 784 816 144 816
WIRE -48 832 -48 624
WIRE 912 832 912 704
WIRE 912 832 -48 832
FLAG 448 784 0
FLAG 560 784 0
FLAG 992 592 0
FLAG -272 -128 IN
FLAG 1296 320 OUT2
FLAG 112 16 0
FLAG -272 -16 0
FLAG 1104 432 0
FLAG 1184 432 0
FLAG 1296 432 0
FLAG -112 16 0
FLAG 336 784 0
FLAG 672 784 0
FLAG -32 432 0
FLAG 1296 -128 OUT1
FLAG 1104 -16 0
FLAG 1184 -16 0
FLAG 1296 -16 0
FLAG 1008 144 0
FLAG 48 624 0
FLAG -160 736 0
SYMBOL voltage -272 -128 R0
SYMATTR Value 5
SYMATTR InstName V1
SYMBOL res 976 448 R0
SYMATTR InstName R1
SYMATTR Value 10K
SYMBOL cap 1088 336 R0
SYMATTR InstName C1
SYMATTR Value 22µ
SYMATTR SpiceLine Rser=5m
SYMBOL cap 96 -80 R0
SYMATTR InstName C2
SYMATTR Value 22µ
SYMBOL cap 1168 336 R0
WINDOW 40 30 71 Left 2
WINDOW 3 36 36 Left 2
SYMATTR SpiceLine2 x2
SYMATTR Value 100µ
SYMATTR InstName C3
SYMATTR SpiceLine Rser=3m
SYMBOL polcap -128 -80 R0
SYMATTR InstName C4
SYMATTR Value 150µ
SYMATTR SpiceLine Rser=9m
SYMBOL res 144 -240 R0
SYMATTR InstName R2
SYMATTR Value 100K
SYMBOL PowerProducts\\LTM4616 560 288 R0
SYMATTR InstName U1
SYMBOL cap -48 336 R0
SYMATTR InstName C5
SYMATTR Value 22µ
SYMBOL res 128 640 R0
SYMATTR InstName R3
SYMATTR Value 100K
SYMBOL cap 1088 -112 R0
SYMATTR InstName C6
SYMATTR Value 22µ
SYMATTR SpiceLine Rser=5m
SYMBOL cap 1168 -112 R0
WINDOW 40 24 70 Left 2
WINDOW 3 37 37 Left 2
SYMATTR SpiceLine2 x2
SYMATTR Value 100µ
SYMATTR InstName C7
SYMATTR SpiceLine Rser=3m
SYMBOL res 992 16 R0
SYMATTR InstName R4
SYMATTR Value 4.99k
SYMBOL cap 992 -96 R0
SYMATTR InstName C8
SYMATTR Value 47p
SYMBOL cap 976 352 R0
SYMATTR InstName C9
SYMATTR Value 47p
SYMBOL res 32 512 R0
SYMATTR InstName R5
SYMATTR Value 10K
SYMBOL res 32 512 M180
WINDOW 0 36 76 Left 2
WINDOW 3 36 40 Left 2
SYMATTR InstName R6
SYMATTR Value 10K
SYMBOL res 1280 -128 R0
SYMATTR InstName Rload1
SYMATTR Value 0.225
SYMBOL res 1280 320 R0
SYMATTR InstName Rload2
SYMATTR Value 0.15
SYMBOL res -176 624 R0
SYMATTR InstName R7
SYMATTR Value 50K
SYMBOL res -176 624 M180
WINDOW 0 36 76 Left 2
WINDOW 3 36 40 Left 2
SYMATTR InstName R8
SYMATTR Value 50K
TEXT 1128 656 Left 2 !.tran 250u startup
TEXT 544 -264 Bottom 2 ;LTM4616 - Dual 8A, Step-Down DC/DC µModule\nInput: 5V     Outputs: 1.8V@8A and 1.2V@8A
TEXT -32 864 Left 2 ;Note:\n  If the simulation model is not found please update with the "Sync Release" command from the "Tools" menu.\n  It remains the customer's responsibility to verify proper and reliable operation in the actual application.\n  Component substitution and printed circuit board layout may significantly affect circuit performance or reliability\n  Contact your local sales representative for assistance. This circuit is distributed to customers only for use with LTC parts\n  Copyright © 2008 Linear Technology Inc. All rights reserved.
