Version 4
SHEET 1 1296 820
WIRE -368 -64 -480 -64
WIRE -272 -64 -368 -64
WIRE -160 -64 -272 -64
WIRE 128 -64 -160 -64
WIRE -480 -48 -480 -64
WIRE -368 -48 -368 -64
WIRE -272 -48 -272 -64
WIRE -160 -48 -160 -64
WIRE 128 0 128 -64
WIRE -480 48 -480 32
WIRE -368 48 -368 16
WIRE -160 48 -160 32
WIRE -80 48 -160 48
WIRE 16 48 0 48
WIRE 448 48 368 48
WIRE 560 48 448 48
WIRE 672 48 560 48
WIRE 768 48 672 48
WIRE 448 64 448 48
WIRE 560 64 560 48
WIRE 672 64 672 48
WIRE 768 64 768 48
WIRE -160 128 -160 48
WIRE -128 128 -160 128
WIRE 16 128 -48 128
WIRE 448 128 368 128
WIRE 448 144 448 128
WIRE 560 160 560 128
WIRE 672 160 672 128
WIRE 768 160 768 144
WIRE -160 176 -160 128
WIRE 16 208 -16 208
WIRE 384 208 368 208
WIRE 448 240 448 224
WIRE -160 256 -160 240
WIRE -16 288 -16 208
WIRE 16 288 -16 288
WIRE 384 288 368 288
WIRE -272 368 -272 32
WIRE 16 368 -272 368
WIRE 384 368 368 368
WIRE -112 448 -128 448
WIRE 16 448 -48 448
WIRE 384 448 368 448
WIRE -64 528 -128 528
WIRE 16 528 0 528
WIRE 384 528 368 528
WIRE 480 528 464 528
WIRE 128 592 128 576
WIRE 256 592 256 576
FLAG 128 592 0
FLAG 256 592 0
FLAG 672 160 0
FLAG 768 160 0
FLAG -480 48 0
FLAG -128 528 0
FLAG 768 48 OUT
FLAG -480 -64 IN
FLAG -128 448 0
FLAG 480 528 0
FLAG 384 288 0
FLAG 448 240 0
FLAG -368 48 0
FLAG 560 160 0
FLAG -160 256 0
SYMBOL cap 656 64 R0
SYMATTR InstName C1
SYMATTR Value 22µ
SYMATTR SpiceLine Rser=8m
SYMBOL cap 0 512 R90
WINDOW 0 0 32 VBottom 2
WINDOW 3 32 32 VTop 2
SYMATTR InstName C2
SYMATTR Value 10µ
SYMBOL voltage -480 -64 R0
WINDOW 123 0 0 Left 2
WINDOW 39 0 0 Left 2
SYMATTR Value2 ""
SYMATTR SpiceLine ""
SYMATTR InstName V1
SYMATTR Value 24
SYMBOL PowerProducts\\LTM4612 192 288 R0
SYMATTR InstName U1
SYMBOL cap -48 432 R90
WINDOW 0 0 32 VBottom 2
WINDOW 3 32 32 VTop 2
SYMATTR InstName C3
SYMATTR Value .0022µ
SYMBOL res 368 544 R270
WINDOW 0 32 56 VTop 2
WINDOW 3 0 56 VBottom 2
SYMATTR InstName R3
SYMATTR Value 392K
SYMBOL res 432 128 R0
SYMATTR InstName R4
SYMATTR Value 5.23K
SYMBOL cap 432 64 R0
WINDOW 3 26 52 Left 2
WINDOW 0 24 11 Left 2
SYMATTR Value 22p
SYMATTR InstName C4
SYMATTR SpiceLine ""
SYMBOL cap -384 -48 R0
SYMATTR InstName C6
SYMATTR Value 10µ
SYMATTR SpiceLine Rser=8m
SYMBOL cap 544 64 R0
SYMATTR Value 220µ
SYMATTR InstName C7
SYMATTR SpiceLine Rser=4m
SYMBOL res 752 48 R0
SYMATTR InstName Rload
SYMATTR Value 2.4
SYMATTR SpiceLine ""
SYMBOL res -288 -64 R0
SYMATTR InstName R1
SYMATTR Value 2Meg
SYMATTR SpiceLine ""
SYMBOL res -176 -64 R0
SYMATTR InstName R2
SYMATTR Value 10K
SYMATTR SpiceLine ""
SYMBOL res -96 32 M90
WINDOW 0 0 56 VBottom 2
WINDOW 3 32 56 VTop 2
SYMATTR InstName R5
SYMATTR Value 51K
SYMBOL zener -176 240 M180
WINDOW 0 24 72 Left 2
WINDOW 3 24 0 Left 2
SYMATTR InstName D1
SYMATTR Value 1N750
SYMATTR Description Diode
SYMATTR Type diode
SYMBOL res -144 144 R270
WINDOW 0 32 56 VTop 2
WINDOW 3 0 56 VBottom 2
SYMATTR InstName R6
SYMATTR Value 51K
SYMATTR SpiceLine ""
TEXT 608 568 Left 2 !.tran 1.2m startup
TEXT 240 -80 Bottom 2 ;LTM4612 - EN55022B Compliant 36Vin, 15Vout, 5A, DC/DC µModule Regulator\nHigh Density 5A High Voltage Low Noise Step-Down Regulator\nInput: 22V to 36V     Output: 12V @ 5A
TEXT -408 608 Left 2 ;Note:\n  If the simulation model is not found please update with the "Sync Release" command from the "Tools" menu.\n  It remains the customer's responsibility to verify proper and reliable operation in the actual application.\n  Component substitution and printed circuit board layout may significantly affect circuit performance or reliability\n  Contact your local sales representative for assistance. This circuit is distributed to customers only for use with LTC parts\n  Copyright © 2012 Linear Technology Inc. All rights reserved.
