Version 4
SHEET 1 2016 908
WIRE 528 -160 16 -160
WIRE -144 -144 -240 -144
WIRE -64 -144 -144 -144
WIRE 96 -144 -64 -144
WIRE 256 -144 96 -144
WIRE 384 -144 256 -144
WIRE -240 -128 -240 -144
WIRE -144 -128 -144 -144
WIRE -64 -128 -64 -144
WIRE 256 -128 256 -144
WIRE 384 -128 384 -144
WIRE 96 -64 96 -144
WIRE 144 -64 96 -64
WIRE -240 -32 -240 -48
WIRE -144 -32 -144 -64
WIRE -64 -32 -64 -64
WIRE 16 32 16 -160
WIRE 144 32 16 32
WIRE 528 32 528 -160
WIRE 528 32 496 32
WIRE 64 128 48 128
WIRE 144 128 128 128
WIRE 576 128 496 128
WIRE 672 128 576 128
WIRE 752 128 672 128
WIRE 832 128 752 128
WIRE 944 128 832 128
WIRE 576 144 576 128
WIRE 672 144 672 128
WIRE 752 144 752 128
WIRE 832 144 832 128
WIRE 944 144 944 128
WIRE 576 224 576 208
WIRE 576 224 496 224
WIRE 576 240 576 224
WIRE 672 240 672 208
WIRE 752 240 752 208
WIRE 832 240 832 208
WIRE 944 240 944 224
WIRE 16 320 16 32
WIRE 144 320 16 320
WIRE 576 336 576 320
WIRE 256 496 256 480
WIRE 384 496 384 480
FLAG -240 -32 0
FLAG -240 -144 IN
FLAG -144 -32 0
FLAG -64 -32 0
FLAG 48 128 0
FLAG 256 496 0
FLAG 384 496 0
FLAG 576 336 0
FLAG 944 240 0
FLAG 672 240 0
FLAG 944 128 OUT
FLAG 752 240 0
FLAG 832 240 0
SYMBOL voltage -240 -144 R0
SYMATTR InstName V1
SYMATTR Value 12
SYMBOL cap 128 112 R90
WINDOW 0 0 32 VBottom 2
WINDOW 3 32 32 VTop 2
SYMATTR InstName C1
SYMATTR Value .005µ
SYMBOL res 560 224 R0
SYMATTR InstName R1
SYMATTR Value 40.2K
SYMBOL cap 656 144 R0
SYMATTR InstName C2
SYMATTR Value 100µ
SYMATTR SpiceLine V=6.3 Irms=0 Rser=0.002 Lser=0 mfg="TDK" pn="C4532X5ROJ47@M" type="X5R"
SYMBOL res 928 128 R0
SYMATTR InstName Rload
SYMATTR Value .5
SYMBOL polcap -160 -128 R0
SYMATTR InstName C3
SYMATTR Value 10µ
SYMATTR SpiceLine Rser=2m
SYMBOL cap -80 -128 R0
WINDOW 123 26 69 Left 2
WINDOW 3 38 36 Left 2
SYMATTR Value2 x2
SYMATTR Value 22µ
SYMATTR InstName C4
SYMATTR SpiceLine V=16 Irms=0 Rser=2m Lser=0
SYMBOL cap 560 144 R0
SYMATTR InstName C5
SYMATTR Value 100p
SYMBOL cap 736 144 R0
SYMATTR InstName C6
SYMATTR Value 47µ
SYMATTR SpiceLine V=6.3 Irms=0 Rser=0.002 Lser=0 mfg="TDK" pn="C4532X5ROJ47@M" type="X5R"
SYMBOL cap 816 144 R0
SYMATTR InstName C7
SYMATTR Value 22µ
SYMATTR SpiceLine V=6.3 Irms=0 Rser=0.002 Lser=0
SYMBOL PowerProducts\\LTM4623 320 176 R0
SYMATTR InstName U1
TEXT 616 392 Left 2 !.tran 2m startup
TEXT 368 -168 Bottom 2 ;LTM4623 - Ultrathin 20Vin, 3A Step-Down DC/DC µModule Regulator\nUltrathin 3A Buck µModule Regulator\nInput: 4V to 20V     Output: 1.5V @ 3A
TEXT -328 504 Left 2 ;Note:\n  If the simulation model is not found please update with the "Sync Release" command from the "Tools" menu.\n  It remains the customer's responsibility to verify proper and reliable operation in the actual application.\n  Component substitution and printed circuit board layout may significantly affect circuit performance or reliability\n  Contact your local sales representative for assistance. This circuit is distributed to customers only for use with LTC parts\n  Copyright © 2015 Linear Technology Inc. All rights reserved.
