Version 4
SHEET 1 1792 904
WIRE 0 48 -96 48
WIRE 96 48 0 48
WIRE 192 48 96 48
WIRE 496 48 192 48
WIRE -96 80 -96 48
WIRE 192 80 192 48
WIRE 496 80 496 48
WIRE 0 96 0 48
WIRE 96 96 96 48
WIRE 752 128 688 128
WIRE -96 192 -96 160
WIRE 0 192 0 160
WIRE 96 192 96 160
WIRE 192 192 192 160
WIRE 304 192 192 192
WIRE 752 192 752 128
WIRE 752 192 688 192
WIRE 880 192 752 192
WIRE 960 192 880 192
WIRE 1088 192 960 192
WIRE 880 224 880 192
WIRE 960 224 960 192
WIRE 1088 224 1088 192
WIRE 304 256 256 256
WIRE 752 256 688 256
WIRE 752 272 752 256
WIRE 304 320 256 320
WIRE 880 336 880 288
WIRE 960 336 960 288
WIRE 1088 336 1088 304
WIRE 752 368 752 352
WIRE 256 384 256 320
WIRE 304 384 256 384
WIRE 768 448 688 448
WIRE 768 480 768 448
WIRE 768 576 768 544
WIRE 416 592 416 576
WIRE 576 592 576 576
FLAG 416 592 0
FLAG 576 592 0
FLAG 752 368 0
FLAG -96 48 IN
FLAG 1088 192 OUT
FLAG 96 192 0
FLAG -96 192 0
FLAG 880 336 0
FLAG 960 336 0
FLAG 1088 336 0
FLAG 0 192 0
FLAG 768 576 0
SYMBOL voltage -96 64 R0
WINDOW 123 0 0 Left 0
WINDOW 39 12 125 Left 0
SYMATTR InstName V1
SYMATTR Value 12
SYMBOL res 736 256 R0
SYMATTR InstName R1
SYMATTR Value 40.2K
SYMBOL cap 864 224 R0
SYMATTR InstName C1
SYMATTR Value 22µ
SYMATTR SpiceLine Rser=5m
SYMBOL cap 80 96 R0
SYMATTR InstName C2
SYMATTR Value 47µ
SYMBOL cap 944 224 R0
WINDOW 40 30 90 Left 0
WINDOW 3 26 59 Left 0
SYMATTR SpiceLine2 x2
SYMATTR InstName C3
SYMATTR Value 100µ
SYMATTR SpiceLine Rser=3m
SYMBOL polcap -16 96 R0
SYMATTR InstName C4
SYMATTR Value 150µ
SYMATTR SpiceLine Rser=9m
SYMBOL res 176 64 R0
SYMATTR InstName R2
SYMATTR Value 100k
SYMBOL cap 736 192 R0
WINDOW 0 37 21 Left 0
WINDOW 3 34 57 Left 0
SYMATTR InstName C5
SYMATTR Value 100p
SYMBOL cap 752 480 R0
SYMATTR InstName C6
SYMATTR Value 2200p
SYMBOL PowerProducts\\LTM4601-1 496 336 R0
SYMATTR InstName U1
SYMBOL res 1072 208 R0
SYMATTR InstName Rload
SYMATTR Value .125
TEXT 960 448 Left 0 !.tran 500u
TEXT 528 32 Bottom 0 ;LTM4601-1 - 12A, High Efficiency Step-Down DC/DC µModule\nInput: 12V     Output: 1.5V @ 12A
TEXT -96 624 Left 0 ;Note:\n  If the simulation model is not found please update with the "Sync Release" command from the "Tools" menu.\n  It remains the customer's responsibility to verify proper and reliable operation in the actual application.\n  Component substitution and printed circuit board layout may significantly affect circuit performance or reliability\n  Contact your local sales representative for assistance. This circuit is distributed to customers only for use with LTC parts\n  Copyright © 2006 Linear Technology Inc. All rights reserved.
