Version 4
SHEET 1 1988 1080
WIRE -528 -576 -640 -576
WIRE -160 -576 -528 -576
WIRE -640 -560 -640 -576
WIRE -64 -560 -432 -560
WIRE 272 -560 -64 -560
WIRE -528 -544 -528 -576
WIRE -352 -512 -368 -512
WIRE -256 -512 -272 -512
WIRE -256 -464 -256 -512
WIRE -160 -464 -160 -576
WIRE -64 -464 -64 -560
WIRE 272 -464 272 -560
WIRE -640 -448 -640 -480
WIRE -528 -448 -528 -480
WIRE -432 -432 -432 -560
WIRE -432 -304 -432 -352
WIRE -352 -304 -432 -304
WIRE 272 -304 272 -384
WIRE 272 -304 224 -304
WIRE -608 -112 -784 -112
WIRE -512 -112 -608 -112
WIRE -384 -112 -512 -112
WIRE -352 -112 -384 -112
WIRE 432 -112 224 -112
WIRE 528 -112 432 -112
WIRE 688 -112 528 -112
WIRE -784 -96 -784 -112
WIRE -608 -96 -608 -112
WIRE -512 -96 -512 -112
WIRE 688 -96 688 -112
WIRE 688 -96 608 -96
WIRE 432 -80 432 -112
WIRE 528 -80 528 -112
WIRE 688 -80 688 -96
WIRE -384 -16 -384 -112
WIRE -352 -16 -384 -16
WIRE 368 -16 224 -16
WIRE -784 0 -784 -16
WIRE -608 0 -608 -32
WIRE -512 0 -512 -32
WIRE 432 16 432 -16
WIRE 528 16 528 -16
WIRE 688 16 688 0
WIRE 688 16 640 16
WIRE 688 32 688 16
WIRE -448 80 -464 80
WIRE -352 80 -368 80
WIRE 240 80 224 80
WIRE 336 80 320 80
WIRE 608 96 608 -96
WIRE 608 96 400 96
WIRE 640 128 640 16
WIRE 640 128 432 128
WIRE -432 272 -448 272
WIRE -352 272 -368 272
WIRE 240 272 224 272
WIRE 320 272 304 272
WIRE -352 368 -384 368
WIRE -256 448 -256 432
WIRE -160 448 -160 432
WIRE 128 448 128 432
WIRE 368 448 368 -16
WIRE 368 448 128 448
WIRE 32 464 32 432
WIRE 400 464 400 96
WIRE 400 464 32 464
WIRE -64 480 -64 432
WIRE 432 480 432 128
WIRE 432 480 -64 480
FLAG -640 -448 0
FLAG -640 -576 IN
FLAG 528 16 0
FLAG 688 -112 OUT2
FLAG -256 448 0
FLAG -464 80 0
FLAG -448 272 0
FLAG -528 -448 0
FLAG 688 32 0
FLAG 320 272 0
FLAG -608 0 0
FLAG -512 0 0
FLAG -784 0 0
FLAG -784 -112 OUT1
FLAG 336 80 0
FLAG -368 -512 0
FLAG 432 16 0
FLAG -160 448 0
FLAG -384 368 0
SYMBOL VOLTAGE -640 -576 R0
WINDOW 3 27 94 Left 2
WINDOW 123 0 0 Left 2
WINDOW 39 0 0 Left 2
SYMATTR Value 12
SYMATTR InstName V1
SYMBOL cap 512 -80 R0
WINDOW 3 24 54 Left 2
SYMATTR Value 100µ
SYMATTR InstName C1
SYMATTR SpiceLine Rser=5m Lser=0.8n
SYMBOL res -352 64 R90
WINDOW 0 0 56 VBottom 2
WINDOW 3 32 56 VTop 2
SYMATTR InstName R1
SYMATTR Value 40.2K
SYMBOL cap -368 256 R90
WINDOW 0 0 32 VBottom 2
WINDOW 3 32 32 VTop 2
SYMATTR InstName C2
SYMATTR Value .001µ
SYMBOL cap -544 -544 R0
WINDOW 40 26 60 Left 2
WINDOW 3 38 32 Left 2
SYMATTR SpiceLine2 x4
SYMATTR Value 22µ
SYMATTR InstName C3
SYMATTR SpiceLine V=35 Rser=5m
SYMBOL cap 240 288 R270
WINDOW 0 32 32 VTop 2
WINDOW 3 0 32 VBottom 2
SYMATTR InstName C4
SYMATTR Value .001µ
SYMBOL cap -528 -96 R0
WINDOW 3 24 54 Left 2
SYMATTR Value 100µ
SYMATTR InstName C5
SYMATTR SpiceLine Rser=5m Lser=0.8n
SYMBOL polcap -624 -96 R0
WINDOW 3 24 64 Left 2
SYMATTR Value 470µ
SYMATTR InstName C6
SYMATTR Description Capacitor
SYMATTR Type cap
SYMATTR SpiceLine V=4 Irms=2.8 Rser=0.010 Lser=0
SYMBOL res 224 96 R270
WINDOW 0 32 56 VTop 2
WINDOW 3 0 56 VBottom 2
SYMATTR InstName R2
SYMATTR Value 60.4K
SYMBOL res -256 -528 R90
WINDOW 0 0 56 VBottom 2
WINDOW 3 32 56 VTop 2
SYMATTR InstName R3
SYMATTR Value 100K
SYMBOL polcap 416 -80 R0
WINDOW 3 24 64 Left 2
SYMATTR Value 470µ
SYMATTR InstName C7
SYMATTR Description Capacitor
SYMATTR Type cap
SYMATTR SpiceLine V=4 Irms=2.8 Rser=0.010 Lser=0
SYMBOL res -448 -448 R0
SYMATTR InstName R4
SYMATTR Value 10K
SYMBOL res 256 -480 R0
SYMATTR InstName R5
SYMATTR Value 10K
SYMBOL PowerProducts\\LTM4620 -64 -16 R0
SYMATTR InstName U1
SYMBOL res -800 -112 R0
SYMATTR InstName Rload1
SYMATTR Value 0.115
SYMBOL res 672 -96 R0
SYMATTR InstName Rload2
SYMATTR Value 0.092
TEXT 544 336 Left 2 !.tran 750u startup
TEXT -640 472 Left 2 ;Note:\n  Smaller values are used for TK/SS capacitors to reduce simulation time. See datasheet for typical values.\n  If the simulation model is not found please update with the "Sync Release" command from the "Tools" menu.\n  It remains the customer's responsibility to verify proper and reliable operation in the actual application.\n  Component substitution and printed circuit board layout may significantly affect circuit performance or reliability\n  Contact your local sales representative for assistance. This circuit is distributed to customers only for use with LTC parts\n  Copyright © 2012 Linear Technology Inc. All rights reserved.
TEXT -64 -584 Bottom 2 ;LTM4620 - Dual 13A, Step-Down DC/DC µModule Regulator\nHigh Efficiency Dual 13A Step-Down Regulator\nInput : 4.5V to 16V     Outputs: 1.5 V @ 13A & 1.2V @ 13A
