Version 4
SHEET 1 2280 1256
WIRE -832 -480 -944 -480
WIRE -720 -480 -832 -480
WIRE -624 -480 -720 -480
WIRE -336 -480 -624 -480
WIRE 1056 -480 -336 -480
WIRE -944 -464 -944 -480
WIRE -832 -464 -832 -480
WIRE -720 -464 -720 -480
WIRE -176 -448 -592 -448
WIRE 144 -448 -176 -448
WIRE 304 -448 144 -448
WIRE 704 -448 304 -448
WIRE 1104 -448 704 -448
WIRE 1136 -448 1104 -448
WIRE 1216 -448 1200 -448
WIRE 704 -432 704 -448
WIRE -944 -368 -944 -384
WIRE -832 -368 -832 -400
WIRE -720 -368 -720 -400
WIRE 704 -336 704 -352
WIRE 784 -336 704 -336
WIRE 144 -320 144 -448
WIRE 304 -320 304 -448
WIRE 704 -240 704 -256
WIRE -336 -208 -336 -480
WIRE -176 -208 -176 -448
WIRE 144 -208 144 -240
WIRE 304 -208 304 -240
WIRE 464 -208 464 -224
WIRE 624 -208 624 -224
WIRE 784 -208 784 -336
WIRE -624 -144 -624 -480
WIRE -544 -144 -624 -144
WIRE -448 -144 -464 -144
WIRE 944 -144 896 -144
WIRE 1056 -144 1056 -480
WIRE 1056 -144 1024 -144
WIRE -624 -48 -624 -144
WIRE -448 -48 -624 -48
WIRE 1056 -48 1056 -144
WIRE 1056 -48 896 -48
WIRE -832 144 -976 144
WIRE -720 144 -832 144
WIRE -448 144 -720 144
WIRE 1152 144 896 144
WIRE 1264 144 1152 144
WIRE 1376 144 1264 144
WIRE -976 160 -976 144
WIRE -832 160 -832 144
WIRE -720 160 -720 144
WIRE 1152 160 1152 144
WIRE 1264 160 1264 144
WIRE 1376 160 1376 144
WIRE -544 240 -560 240
WIRE -448 240 -464 240
WIRE 912 240 896 240
WIRE 1008 240 992 240
WIRE -976 256 -976 240
WIRE -832 256 -832 224
WIRE -720 256 -720 224
WIRE 1152 256 1152 224
WIRE 1264 256 1264 224
WIRE 1376 256 1376 240
WIRE -544 432 -560 432
WIRE -448 432 -480 432
WIRE 912 432 896 432
WIRE 992 432 976 432
WIRE -592 528 -592 -448
WIRE -560 528 -592 528
WIRE -448 528 -480 528
WIRE 912 528 896 528
WIRE 1104 528 1104 -448
WIRE 1104 528 992 528
WIRE -336 608 -336 592
WIRE 304 608 304 592
WIRE 624 608 624 592
WIRE 784 608 784 592
WIRE 48 640 -80 640
WIRE 144 640 144 592
WIRE 144 640 48 640
WIRE -80 656 -80 640
WIRE 48 672 48 640
WIRE 144 672 144 640
WIRE 624 688 624 672
WIRE -624 704 -624 -48
WIRE -336 704 -336 688
WIRE -336 704 -624 704
WIRE -176 704 -176 592
WIRE -176 704 -336 704
WIRE 304 704 304 688
WIRE -80 752 -80 736
WIRE 48 752 48 736
WIRE 144 752 144 736
FLAG -944 -368 0
FLAG 1216 -448 0
FLAG 464 -224 0
FLAG 784 608 0
FLAG -560 240 0
FLAG -944 -480 IN
FLAG -976 144 OUT1
FLAG 1008 240 0
FLAG 1376 144 OUT2
FLAG 304 704 0
FLAG 144 752 0
FLAG -80 640 OUT3
FLAG -976 256 0
FLAG 1376 256 0
FLAG -80 752 0
FLAG -832 -368 0
FLAG -720 -368 0
FLAG 48 752 0
FLAG 1264 256 0
FLAG 1152 256 0
FLAG -720 256 0
FLAG -832 256 0
FLAG -560 432 0
FLAG 992 432 0
FLAG 624 688 0
FLAG 704 -240 0
FLAG 624 -224 0
SYMBOL voltage -944 -480 R0
WINDOW 123 0 0 Left 2
WINDOW 39 0 0 Left 2
SYMATTR InstName V1
SYMATTR Value 18
SYMBOL cap 1200 -432 M270
WINDOW 0 32 32 VTop 2
WINDOW 3 0 32 VBottom 2
SYMATTR InstName C1
SYMATTR Value 4.7µ
SYMBOL res -560 -128 R270
WINDOW 0 32 56 VTop 2
WINDOW 3 0 56 VBottom 2
SYMATTR InstName R1
SYMATTR Value 23.2K
SYMBOL res -448 224 R90
WINDOW 0 0 56 VBottom 2
WINDOW 3 32 56 VTop 2
SYMATTR InstName R2
SYMATTR Value 243K
SYMBOL res 896 256 R270
WINDOW 0 32 56 VTop 2
WINDOW 3 0 56 VBottom 2
SYMATTR InstName R3
SYMATTR Value 19.1K
SYMBOL res 288 592 R0
SYMATTR InstName R4
SYMATTR Value 4.32K
SYMBOL cap 128 672 R0
SYMATTR InstName C4
SYMATTR Value 150µ
SYMATTR SpiceLine V=4 Rser=10m
SYMBOL res -992 144 R0
SYMATTR InstName Rload1
SYMATTR Value .2
SYMBOL res 1360 144 R0
SYMATTR InstName Rload2
SYMATTR Value .66
SYMBOL res -96 640 R0
SYMATTR InstName Rload3
SYMATTR Value 3
SYMBOL cap -848 -464 R0
SYMATTR InstName C5
SYMATTR Value 120µ
SYMATTR SpiceLine V=25
SYMBOL cap -736 -464 R0
SYMATTR InstName C6
SYMATTR Value 22µ
SYMATTR SpiceLine V=25
SYMBOL cap 32 672 R0
SYMATTR InstName C8
SYMATTR Value 100µ
SYMATTR SpiceLine V=6.3 Rser=2m
SYMBOL res 128 -336 R0
SYMATTR InstName R5
SYMATTR Value 100K
SYMBOL res 288 -336 R0
SYMATTR InstName R6
SYMATTR Value 100K
SYMBOL cap 1248 160 R0
SYMATTR InstName C3
SYMATTR Value 470µ
SYMATTR SpiceLine V=4 Rser=10m
SYMBOL cap 1136 160 R0
SYMATTR InstName C10
SYMATTR Value 100µ
SYMATTR SpiceLine V=6.3 Rser=2m
SYMBOL cap -736 160 R0
SYMATTR InstName C2
SYMATTR Value 470µ
SYMATTR SpiceLine V=4 Rser=10m
SYMBOL cap -848 160 R0
SYMATTR InstName C12
SYMATTR Value 100µ
SYMATTR SpiceLine V=6.3 Rser=2m
SYMBOL res -576 544 R270
WINDOW 0 32 56 VTop 2
WINDOW 3 0 56 VBottom 2
SYMATTR InstName R7
SYMATTR Value 49.9K
SYMBOL res 896 544 R270
WINDOW 0 32 56 VTop 2
WINDOW 3 0 56 VBottom 2
SYMATTR InstName R8
SYMATTR Value 49.9K
SYMBOL cap -480 416 R90
WINDOW 0 0 32 VBottom 2
WINDOW 3 32 32 VTop 2
SYMATTR InstName C13
SYMATTR Value 0.1n
SYMBOL cap 912 448 R270
WINDOW 0 32 32 VTop 2
WINDOW 3 0 32 VBottom 2
SYMATTR InstName C14
SYMATTR Value 0.1n
SYMBOL cap 608 608 R0
SYMATTR InstName C15
SYMATTR Value 0.1n
SYMBOL LTM4634 224 192 R0
SYMATTR InstName U1
SYMBOL res -352 592 R0
SYMATTR InstName R9
SYMATTR Value 23.2K
SYMBOL res 1040 -160 R90
WINDOW 0 0 56 VBottom 2
WINDOW 3 32 56 VTop 2
SYMATTR InstName R10
SYMATTR Value 23.2k
SYMBOL res 688 -352 R0
SYMATTR InstName R11
SYMATTR Value 10K
SYMBOL res 688 -448 R0
SYMATTR InstName R12
SYMATTR Value 30K
TEXT 952 720 Left 2 !.tran 2m startup
TEXT 192 -520 Bottom 2 ;LTM4634 - Triple Output 5A/5A/4A Step-Down DC/DC µModule Regulator\nTriple 5A/5A/4A Buck µModule Regulator\nInput: 4.75V to 28V     Outputs: 1.0V @ 5A, 3.3V @ 5A & 12.0V @ 4A, Fsw = 500kHz
TEXT -368 784 Left 2 ;Notes:\n  A smaller TRACK/SS capacitor is being used to reduce simulation time. Typical value should be 0.1µF.\n  More output capacitors may be needed to meet load step and output voltage requirements.\n  If the simulation model is not found please update with the "Sync Release" command from the "Tools" menu.\n  It remains the customer's responsibility to verify proper and reliable operation in the actual application.\n  Component substitution and printed circuit board layout may significantly affect circuit performance or reliability.\n  Contact your local sales representative for assistance. This circuit is distributed to customers only for use with LTC parts.\n  Copyright © 2014 Linear Technology Inc. All rights reserved.
