Version 4
SHEET 1 1820 692
WIRE 192 64 80 64
WIRE 448 64 192 64
WIRE 768 64 448 64
WIRE 80 80 80 64
WIRE 192 80 192 64
WIRE 448 96 448 64
WIRE 272 144 256 144
WIRE 800 144 624 144
WIRE 896 144 800 144
WIRE 800 160 800 144
WIRE 896 160 896 144
WIRE 80 176 80 160
WIRE 192 176 192 144
WIRE 272 208 256 208
WIRE 640 208 624 208
WIRE 736 208 720 208
WIRE 800 256 800 224
WIRE 896 256 896 240
WIRE 192 272 176 272
WIRE 272 272 256 272
WIRE 768 272 768 64
WIRE 768 272 624 272
WIRE 448 336 448 320
FLAG 80 176 0
FLAG 448 336 0
FLAG 896 256 0
FLAG 736 208 0
FLAG 896 144 OUT
FLAG 80 64 IN
FLAG 800 256 0
FLAG 192 176 0
FLAG 176 272 0
SYMBOL voltage 80 64 R0
WINDOW 0 23 25 Left 0
WINDOW 3 30 90 Left 0
SYMATTR InstName V1
SYMATTR Value 3.3
SYMBOL res 624 224 R270
WINDOW 0 32 56 VTop 0
WINDOW 3 0 56 VBottom 0
SYMATTR InstName R1
SYMATTR Value 13.3K
SYMBOL res 880 144 R0
SYMATTR InstName Rload
SYMATTR Value .275
SYMBOL cap 784 160 R0
WINDOW 3 38 33 Left 0
WINDOW 40 25 62 Left 0
SYMATTR Value 22µ
SYMATTR SpiceLine2 x3
SYMATTR InstName C1
SYMBOL PowerProducts\\LTM4604A 448 208 R0
SYMATTR InstName U1
SYMBOL cap 176 80 R0
SYMATTR InstName C2
SYMATTR Value 10µ
SYMBOL cap 256 256 R90
WINDOW 0 0 32 VBottom 0
WINDOW 3 32 32 VTop 0
SYMATTR InstName C3
SYMATTR Value .001µ
TEXT 688 320 Left 0 !.tran 1.4m startup
TEXT 488 40 Bottom 0 ;LTM4604A - Low Voltage, 4A DC/DC µModule with Tracking\nTypical 2.375V to 5.5V Input, 1.5V at 4A Design\nInput: 2.4V to 5.5V     Output: 1.1V @ 4A, Fswitch = 1.25MHz
TEXT -112 352 Left 0 ;Note:\n  If the simulation model is not found please update with the "Sync Release" command from the "Tools" menu.\n  It remains the customer's responsibility to verify proper and reliable operation in the actual application.\n  Component substitution and printed circuit board layout may significantly affect circuit performance or reliability\n  Contact your local sales representative for assistance. This circuit is distributed to customers only for use with LTC parts\n  Copyright © 2011 Linear Technology Inc. All rights reserved.
