Version 4
SHEET 1 2280 1136
WIRE 784 -416 -176 -416
WIRE -800 -384 -912 -384
WIRE -688 -384 -800 -384
WIRE -592 -384 -688 -384
WIRE -336 -384 -592 -384
WIRE 1056 -384 -336 -384
WIRE -912 -368 -912 -384
WIRE -800 -368 -800 -384
WIRE -688 -368 -688 -384
WIRE 912 -352 -464 -352
WIRE -272 -304 -288 -304
WIRE -176 -304 -176 -416
WIRE -176 -304 -208 -304
WIRE 176 -304 -176 -304
WIRE 304 -304 256 -304
WIRE -912 -272 -912 -288
WIRE -800 -272 -800 -304
WIRE -688 -272 -688 -304
WIRE -176 -256 -176 -304
WIRE 16 -256 -176 -256
WIRE 144 -256 96 -256
WIRE -336 -208 -336 -384
WIRE -176 -208 -176 -256
WIRE 144 -208 144 -256
WIRE 304 -208 304 -304
WIRE 464 -208 464 -224
WIRE 624 -208 624 -224
WIRE 784 -208 784 -416
WIRE -592 -144 -592 -384
WIRE -560 -144 -592 -144
WIRE -464 -144 -464 -352
WIRE -464 -144 -480 -144
WIRE -448 -144 -464 -144
WIRE 912 -144 912 -352
WIRE 912 -144 896 -144
WIRE -592 -48 -592 -144
WIRE -448 -48 -592 -48
WIRE 1056 -48 1056 -384
WIRE 1056 -48 896 -48
WIRE -896 144 -1024 144
WIRE -784 144 -896 144
WIRE -688 144 -784 144
WIRE -448 144 -688 144
WIRE 960 144 896 144
WIRE 1104 144 960 144
WIRE 1216 144 1104 144
WIRE 1328 144 1216 144
WIRE -1024 160 -1024 144
WIRE -896 160 -896 144
WIRE -784 160 -784 144
WIRE -688 160 -688 144
WIRE 960 160 960 144
WIRE 1104 160 1104 144
WIRE 1216 160 1216 144
WIRE 1328 160 1328 144
WIRE -688 240 -688 224
WIRE -448 240 -688 240
WIRE 960 240 960 224
WIRE 960 240 896 240
WIRE -1024 256 -1024 240
WIRE -896 256 -896 224
WIRE -784 256 -784 224
WIRE -688 256 -688 240
WIRE 960 256 960 240
WIRE 1104 256 1104 224
WIRE 1216 256 1216 224
WIRE 1328 256 1328 240
WIRE -688 352 -688 336
WIRE 960 352 960 336
WIRE -544 432 -560 432
WIRE -448 432 -480 432
WIRE 912 432 896 432
WIRE 992 432 976 432
WIRE -592 528 -592 -48
WIRE -560 528 -592 528
WIRE -448 528 -480 528
WIRE 912 528 896 528
WIRE 1056 528 1056 -48
WIRE 1056 528 992 528
WIRE -464 608 -464 -144
WIRE -336 608 -336 592
WIRE -336 608 -464 608
WIRE 624 608 624 592
WIRE 784 608 784 592
WIRE -592 624 -592 528
WIRE -176 624 -176 592
WIRE -176 624 -592 624
WIRE 48 640 -80 640
WIRE 144 640 144 592
WIRE 144 640 48 640
WIRE 192 640 144 640
WIRE 304 640 304 592
WIRE 304 640 256 640
WIRE -80 656 -80 640
WIRE 304 656 304 640
WIRE 48 672 48 640
WIRE 144 672 144 640
WIRE 624 688 624 672
WIRE -80 752 -80 736
WIRE 48 752 48 736
WIRE 144 752 144 736
WIRE 304 752 304 736
FLAG -912 -272 0
FLAG -288 -304 0
FLAG 464 -224 0
FLAG 784 608 0
FLAG -688 352 0
FLAG -912 -384 IN
FLAG -1024 144 OUT1
FLAG 960 352 0
FLAG 1328 144 OUT2
FLAG 304 752 0
FLAG 144 752 0
FLAG -80 640 OUT3
FLAG -1024 256 0
FLAG 1328 256 0
FLAG -80 752 0
FLAG -800 -272 0
FLAG -688 -272 0
FLAG 48 752 0
FLAG 1216 256 0
FLAG 1104 256 0
FLAG -784 256 0
FLAG -896 256 0
FLAG -560 432 0
FLAG 992 432 0
FLAG 624 688 0
FLAG 624 -224 0
SYMBOL LTM4633 224 192 R0
SYMATTR InstName U1
SYMBOL voltage -912 -384 R0
WINDOW 123 0 0 Left 2
WINDOW 39 0 0 Left 2
SYMATTR InstName V1
SYMATTR Value 12
SYMBOL cap -272 -288 R270
WINDOW 0 32 32 VTop 2
WINDOW 3 0 32 VBottom 2
SYMATTR InstName C1
SYMATTR Value 4.7µ
SYMBOL res -576 -128 R270
WINDOW 0 32 56 VTop 2
WINDOW 3 0 56 VBottom 2
SYMATTR InstName R1
SYMATTR Value 23.2K
SYMBOL res -704 240 R0
SYMATTR InstName R2
SYMATTR Value 242K
SYMBOL res 944 240 R0
SYMATTR InstName R3
SYMATTR Value 121K
SYMBOL res 288 640 R0
SYMATTR InstName R4
SYMATTR Value 19.1K
SYMBOL cap 128 672 R0
SYMATTR InstName C4
SYMATTR Value 470µ
SYMATTR SpiceLine V=4 Rser=10m
SYMBOL res -1040 144 R0
SYMATTR InstName Rload1
SYMATTR Value .1
SYMBOL res 1312 144 R0
SYMATTR InstName Rload2
SYMATTR Value .12
SYMBOL res -96 640 R0
SYMATTR InstName Rload3
SYMATTR Value .33
SYMBOL cap -816 -368 R0
SYMATTR InstName C5
SYMATTR Value 150µ
SYMATTR SpiceLine V=25
SYMBOL cap -704 -368 R0
SYMATTR InstName C6
SYMATTR Value 22µ
SYMATTR SpiceLine V=25
SYMBOL cap 256 624 R90
WINDOW 0 0 32 VBottom 2
WINDOW 3 32 32 VTop 2
SYMATTR InstName C7
SYMATTR Value 220p
SYMBOL cap 32 672 R0
SYMATTR InstName C8
SYMATTR Value 100µ
SYMATTR SpiceLine V=6.3 Rser=2m
SYMBOL res 112 -272 R90
WINDOW 0 0 56 VBottom 2
WINDOW 3 32 56 VTop 2
SYMATTR InstName R5
SYMATTR Value 10K
SYMBOL res 272 -320 R90
WINDOW 0 0 56 VBottom 2
WINDOW 3 32 56 VTop 2
SYMATTR InstName R6
SYMATTR Value 10K
SYMBOL cap 944 224 M180
WINDOW 0 24 56 Left 2
WINDOW 3 24 8 Left 2
SYMATTR InstName C9
SYMATTR Value 220p
SYMBOL cap 1200 160 R0
SYMATTR InstName C3
SYMATTR Value 470µ
SYMATTR SpiceLine V=4 Rser=10m
SYMBOL cap 1088 160 R0
SYMATTR InstName C10
SYMATTR Value 100µ
SYMATTR SpiceLine V=6.3 Rser=2m
SYMBOL cap -704 224 M180
WINDOW 0 24 56 Left 2
WINDOW 3 24 8 Left 2
SYMATTR InstName C11
SYMATTR Value 220p
SYMBOL cap -800 160 R0
SYMATTR InstName C2
SYMATTR Value 470µ
SYMATTR SpiceLine V=4 Rser=10m
SYMBOL cap -912 160 R0
SYMATTR InstName C12
SYMATTR Value 100µ
SYMATTR SpiceLine V=6.3 Rser=2m
SYMBOL res -576 544 R270
WINDOW 0 32 56 VTop 2
WINDOW 3 0 56 VBottom 2
SYMATTR InstName R7
SYMATTR Value 10K
SYMBOL res 896 544 R270
WINDOW 0 32 56 VTop 2
WINDOW 3 0 56 VBottom 2
SYMATTR InstName R8
SYMATTR Value 10K
SYMBOL cap -480 416 R90
WINDOW 0 0 32 VBottom 2
WINDOW 3 32 32 VTop 2
SYMATTR InstName C13
SYMATTR Value 0.1n
SYMBOL cap 912 448 R270
WINDOW 0 32 32 VTop 2
WINDOW 3 0 32 VBottom 2
SYMATTR InstName C14
SYMATTR Value 0.1n
SYMBOL cap 608 608 R0
SYMATTR InstName C15
SYMATTR Value 0.1n
TEXT 864 728 Left 2 !.tran 750u startup
TEXT 104 -448 Bottom 2 ;LTM4633 - Triple 10A Step-Down DC/DC µModule Regulator\nHigh Efficiency, Triple 10A Step-Down µModule Regulator\nInput: 4.5V to 16V     Outputs: 1.0V, 1.2V & 3.3V @ 10A, Fsw = 750kHz
TEXT -416 776 Left 2 ;Notes:\n  A smaller TRACK/SS capacitor is being used to reduce simulation time. Typical value should be 0.1µF.\n  More output capacitors may be needed to meet load step and output voltage requirements.\n  If the simulation model is not found please update with the "Sync Release" command from the "Tools" menu.\n  It remains the customer's responsibility to verify proper and reliable operation in the actual application.\n  Component substitution and printed circuit board layout may significantly affect circuit performance or reliability.\n  Contact your local sales representative for assistance. This circuit is distributed to customers only for use with LTC parts.\n  Copyright © 2014 Linear Technology Inc. All rights reserved.
