Version 4
SHEET 1 2048 1244
WIRE -1808 -784 -2016 -784
WIRE -1424 -784 -1808 -784
WIRE -1168 -784 -1424 -784
WIRE -496 -784 -1168 -784
WIRE -2016 -768 -2016 -784
WIRE -1808 -768 -1808 -784
WIRE -1296 -752 -1552 -752
WIRE -784 -752 -1296 -752
WIRE -656 -752 -784 -752
WIRE -1296 -736 -1296 -752
WIRE -656 -736 -656 -752
WIRE -2016 -672 -2016 -688
WIRE -1808 -672 -1808 -704
WIRE -1296 -640 -1296 -656
WIRE -1168 -640 -1168 -784
WIRE -784 -640 -784 -752
WIRE -656 -640 -656 -656
WIRE -1424 -576 -1424 -784
WIRE -1376 -576 -1424 -576
WIRE -496 -576 -496 -784
WIRE -496 -576 -576 -576
WIRE -1376 -384 -1408 -384
WIRE -528 -384 -576 -384
WIRE -1888 -288 -2016 -288
WIRE -1744 -288 -1888 -288
WIRE -1648 -288 -1744 -288
WIRE -1440 -288 -1648 -288
WIRE -1376 -288 -1440 -288
WIRE -512 -288 -576 -288
WIRE -416 -288 -512 -288
WIRE -288 -288 -416 -288
WIRE -160 -288 -288 -288
WIRE -32 -288 -160 -288
WIRE -2016 -272 -2016 -288
WIRE -1888 -272 -1888 -288
WIRE -1744 -272 -1744 -288
WIRE -1648 -272 -1648 -288
WIRE -416 -272 -416 -288
WIRE -288 -272 -288 -288
WIRE -160 -272 -160 -288
WIRE -32 -272 -32 -288
WIRE -1376 -192 -1408 -192
WIRE -544 -192 -576 -192
WIRE -416 -192 -416 -208
WIRE -416 -192 -480 -192
WIRE -2016 -176 -2016 -192
WIRE -1888 -176 -1888 -192
WIRE -1744 -176 -1744 -208
WIRE -1648 -176 -1648 -208
WIRE -416 -176 -416 -192
WIRE -288 -176 -288 -208
WIRE -160 -176 -160 -192
WIRE -32 -176 -32 -192
WIRE -1408 -96 -1408 -192
WIRE -1376 -96 -1408 -96
WIRE -544 -96 -544 -192
WIRE -544 -96 -576 -96
WIRE -1376 0 -1408 0
WIRE -544 0 -576 0
WIRE -1408 96 -1408 0
WIRE -1376 96 -1408 96
WIRE -544 96 -544 0
WIRE -544 96 -576 96
WIRE -1440 192 -1440 -288
WIRE -1376 192 -1440 192
WIRE -512 192 -512 -288
WIRE -512 192 -576 192
WIRE -1488 384 -1520 384
WIRE -1376 384 -1424 384
WIRE -480 384 -480 -192
WIRE -480 384 -576 384
WIRE -1488 576 -1520 576
WIRE -1376 576 -1408 576
WIRE -528 576 -576 576
WIRE -432 576 -464 576
WIRE -1376 672 -1408 672
WIRE -1168 752 -1168 736
WIRE -912 752 -912 736
WIRE -1552 784 -1552 -752
WIRE -1504 784 -1552 784
WIRE -1296 784 -1296 736
WIRE -1296 784 -1424 784
FLAG -1808 -672 0
FLAG -2016 -672 0
FLAG -1168 752 0
FLAG -912 752 0
FLAG -416 -176 0
FLAG -288 -176 0
FLAG -1744 -176 0
FLAG -1648 -176 0
FLAG -2016 -784 IN
FLAG -2016 -288 OUT1
FLAG -32 -288 OUT0
FLAG -1520 384 0
FLAG -432 576 0
FLAG -1408 672 0
FLAG -1520 576 0
FLAG -160 -176 0
FLAG -1888 -176 0
FLAG -32 -176 0
FLAG -2016 -176 0
SYMBOL PowerProducts\\LTM4676 -976 48 R0
WINDOW 39 60 789 Center 2
WINDOW 40 72 841 Center 2
SYMATTR SpiceLine VIN_ON=4.2 VIN_OFF=4 Vout_0=1.0 Vout_1=1.8 Ilim0_range=1 Ilim1_range=1 OC_limit0=1 OC_limit1=1 Mode_ll=2 Fault_response=0 Retry_delay=.1m
SYMATTR InstName U1
SYMBOL cap -1824 -768 R0
WINDOW 3 38 33 Left 2
WINDOW 123 26 57 Left 2
SYMATTR Value 10µ
SYMATTR Value2 x4
SYMATTR InstName C1
SYMBOL voltage -2016 -784 R0
WINDOW 123 0 0 Left 2
WINDOW 39 0 0 Left 2
SYMATTR InstName V1
SYMATTR Value 12
SYMBOL res -1312 -752 R0
SYMATTR InstName R1
SYMATTR Value 10K
SYMBOL res -672 -752 R0
SYMATTR InstName R2
SYMATTR Value 10K
SYMBOL cap -432 -272 R0
WINDOW 3 40 39 Left 2
WINDOW 123 27 63 Left 2
SYMATTR Value 100µ
SYMATTR Value2 x3
SYMATTR InstName C2
SYMATTR SpiceLine Rser=2m
SYMBOL cap -304 -272 R0
WINDOW 123 24 77 Left 2
SYMATTR InstName C3
SYMATTR Value 330µ
SYMATTR SpiceLine Rser=9m
SYMBOL cap -1760 -272 R0
WINDOW 123 24 77 Left 2
SYMATTR InstName C4
SYMATTR Value 330µ
SYMATTR SpiceLine Rser=9m
SYMBOL cap -1664 -272 R0
WINDOW 3 40 34 Left 2
WINDOW 123 28 60 Left 2
SYMATTR Value 100µ
SYMATTR Value2 x3
SYMATTR InstName C5
SYMATTR SpiceLine Rser=2m
SYMBOL cap -1424 368 R90
WINDOW 0 0 32 VBottom 2
WINDOW 3 32 32 VTop 2
WINDOW 39 53 32 VTop 2
SYMATTR InstName C6
SYMATTR Value 2.2n
SYMATTR SpiceLine Rser=4.99K
SYMBOL cap -528 592 R270
WINDOW 0 32 32 VTop 2
WINDOW 3 0 32 VBottom 2
WINDOW 39 -21 32 VBottom 2
SYMATTR InstName C7
SYMATTR Value 2.2n
SYMATTR SpiceLine Rser=4.22K
SYMBOL res -1408 768 R90
WINDOW 0 0 56 VBottom 2
WINDOW 3 32 56 VTop 2
SYMATTR InstName R3
SYMATTR Value 10K
SYMBOL res -1392 560 R90
WINDOW 0 0 56 VBottom 2
WINDOW 3 32 56 VTop 2
SYMATTR InstName R4
SYMATTR Value 6.34K
SYMBOL res -176 -288 R0
SYMATTR InstName R5
SYMATTR Value 0.153
SYMBOL res -1904 -288 R0
SYMATTR InstName R6
SYMATTR Value 0.277
SYMBOL current -32 -272 R0
WINDOW 123 0 0 Left 2
WINDOW 39 0 0 Left 2
WINDOW 3 -234 153 Left 2
SYMATTR Value PWL(1.4m 0 1.401m 6.5 1.6m 6.5 1.601m 0)
SYMATTR InstName I1
SYMBOL current -2016 -272 R0
WINDOW 3 -88 148 Left 2
WINDOW 123 24 122 Left 2
WINDOW 39 24 101 Left 2
SYMATTR Value PWL(1.4m 0 1.401m 6.5 1.6m 6.5 1.601m 0)
SYMATTR InstName I2
TEXT 48 664 Left 2 !.tran 2m startup
TEXT 320 -600 Left 1 ;Please read the following notes carefully, since the model presents different user interface\nthan the real part does.\n \n(1) All PMBus communication and memory address related functions and pins are not modeled. \n \n(2) Changes to all parameter values during the simulation running will not be in effect, unless the\nsimulation is stopped and restarted. This is different from the operation of the part, which will\n respond to the commanded changes while running. \n \n(3) Share_clk is not modeled. The default time reference of LTspice is used as the common time \nbase for all time related parameters.\n \n(4) The following parameters can be defined, by right-clicking the symbol of LTC3880. Different \nnomenclature from the datasheet is adopted here. If any value of these parameters are set beyond \nthe scope discribed in the datasheet, the resulting simulation outcomes are not meaningful.\n \n     VIN_ON & VIN_OFF -- in volts, set the unit start/stop input voltages;\n     Freq -- in Hz, sets switching frequency as one of values of 250K, 350K, \n                425K, 500K, 575K, 650K, 750K, 1000K. FREQ_CFG pin needs to float \n                (or short to VDD25), to make the value be in effect;\n     PHs_0 & PHs_1 -- in degree,  set phase angle related to SYNC signal. \n                Certain combinations are restricted as in datasheet. FREQ_CFG \n                pin needs to float (or short to VDD25), to make the value be in effect;\n     Ton0_delay & Ton0_rise; Ton1_delay & Ton1_rise -- in sec, set delay and soft-start timers for \n                channel0 and channel1. Initialization time is not modeled;\n     Toff0_delay & Toff0_fall; Toff1_delay & Toff1_fall -- in sec, set delay and soft-off timers for \n                channel0 and channel1;\n     Vout_0 & Vout_1 -- in volt, set output voltages respectively;\n     Vout0_range & Vout1_range -- set maximum output range, with value 0\n                                                      for 4.096V (CH0) and 5.5V (CH1); value 1\n                                                      for 2.75V\n     Ilim0_range & Ilim1_range -- set maximum sensed peak current range, with value 0\n                           for low 50mV, and 1 for high 75mV;\n     OC_limit0 & OC_limit1 -- set ratio of peak current limit to the maximum value defined\n                      by Ilimit_range. It must be one of values: 0.5, 0.572, 0.642, \n                      0.714, 0.786, 0.858, 0.928, 1;\n     Mode_II -- sets light load operation mode: 0 for discontinuous, 1 for Burst,\n                      2 for forced continuous;\n     Fault_response -- sets the response mode of the unit to occuring faults:\n                                 0 for ignore, 1 for latch up, 2 for Hiccup after Retry_delay time;\n     Retry_delay -- in sec, sets the timer before the unit turns on after a fault;
TEXT -1024 -816 Bottom 2 ;LTM4676 - Dual 13A or Single 26A µModule Regulator with Digital Power System Management\nDual 13A µModule Buck Regulator with Digital Interface for Control & Monitoring\nInput: 4.5V to 26.5V     Output: 1V @ 13A & 1.8V @ 13A
TEXT -384 264 Left 2 ;Notes: \n  If the simulation model is not found please update with the "Sync Release" command from the "Tools" menu.\n  It remains the customer's responsibility to verify proper and reliable operation in the actual application.\n  Component substitution and printed circuit board layout may significantly affect circuit performance or reliability.\n  Contact your local sales representative for assistance. This circuit is distributed to customers only for use with LTC parts.\n  Copyright © 2012 Linear Technology Inc.  All rights reserved.
