Version 4
SHEET 1 1792 1108
WIRE 144 64 48 64
WIRE 240 64 144 64
WIRE 560 64 240 64
WIRE 656 64 560 64
WIRE 896 64 656 64
WIRE 48 80 48 64
WIRE 144 80 144 64
WIRE 240 80 240 64
WIRE 560 80 560 64
WIRE 464 144 336 144
WIRE 48 176 48 160
WIRE 144 176 144 144
WIRE 240 176 240 144
WIRE 464 176 464 144
WIRE 560 176 560 160
WIRE 656 176 656 64
WIRE 336 240 336 144
WIRE 368 240 336 240
WIRE 800 240 752 240
WIRE 960 240 800 240
WIRE 1072 240 960 240
WIRE 1184 240 1072 240
WIRE 960 256 960 240
WIRE 1072 256 1072 240
WIRE 1184 256 1184 240
WIRE 800 272 800 240
WIRE 336 320 336 240
WIRE 368 320 336 320
WIRE 960 352 960 320
WIRE 1072 352 1072 320
WIRE 1184 352 1184 336
WIRE 336 400 336 320
WIRE 368 400 336 400
WIRE 800 400 800 336
WIRE 800 400 752 400
WIRE 800 432 800 400
WIRE 800 560 800 512
WIRE 800 560 752 560
WIRE 800 576 800 560
WIRE 896 624 896 64
WIRE 896 720 896 704
WIRE 896 720 752 720
WIRE 896 736 896 720
WIRE 464 800 464 784
WIRE 656 800 656 784
WIRE 896 832 896 816
FLAG 464 800 0
FLAG 656 800 0
FLAG 800 576 0
FLAG 48 64 IN
FLAG 1184 240 OUT
FLAG 240 176 0
FLAG 48 176 0
FLAG 960 352 0
FLAG 1072 352 0
FLAG 1184 352 0
FLAG 144 176 0
FLAG 896 832 0
SYMBOL voltage 48 64 R0
WINDOW 123 0 0 Left 2
WINDOW 39 12 125 Left 2
SYMATTR InstName V1
SYMATTR Value 5
SYMBOL res 784 416 R0
SYMATTR InstName R1
SYMATTR Value 6.65K
SYMBOL cap 944 256 R0
SYMATTR InstName C1
SYMATTR Value 22µ
SYMATTR SpiceLine Rser=5m
SYMBOL cap 224 80 R0
SYMATTR InstName C2
SYMATTR Value 10µ
SYMBOL cap 1056 256 R0
WINDOW 40 30 61 Left 2
WINDOW 3 41 34 Left 2
SYMATTR SpiceLine2 x2
SYMATTR Value 100µ
SYMATTR InstName C3
SYMATTR SpiceLine Rser=3m
SYMBOL polcap 128 80 R0
SYMATTR InstName C4
SYMATTR Value 150µ
SYMATTR SpiceLine Rser=9m
SYMBOL res 544 64 R0
SYMATTR InstName R2
SYMATTR Value 10K
SYMBOL cap 784 272 R0
WINDOW 0 28 15 Left 2
WINDOW 3 29 55 Left 2
SYMATTR InstName C5
SYMATTR Value 47p
SYMBOL PowerProducts\\LTM4608 560 480 R0
SYMATTR InstName U1
SYMBOL res 1168 240 R0
SYMATTR InstName Rload
SYMATTR Value 0.1875
SYMBOL res 880 608 R0
SYMATTR InstName R3
SYMATTR Value 50K
SYMBOL res 880 720 R0
SYMATTR InstName R4
SYMATTR Value 50K
TEXT 1048 776 Left 2 !.tran 300u startup
TEXT 560 56 Bottom 2 ;LTM4608 - 8A, Step-Down DC/DC µModule in 15mm*9mm LGA package\nInput: 5V     Output: 1.5V @ 8A
TEXT -40 848 Left 2 ;Note:\n  If the simulation model is not found please update with the "Sync Release" command from the "Tools" menu.\n  It remains the customer's responsibility to verify proper and reliable operation in the actual application.\n  Component substitution and printed circuit board layout may significantly affect circuit performance or reliability\n  Contact your local sales representative for assistance. This circuit is distributed to customers only for use with LTC parts\n  Copyright © 2008 Linear Technology Inc. All rights reserved.
