Version 4
SHEET 1 1792 904
WIRE 96 48 -16 48
WIRE 192 48 96 48
WIRE 416 48 192 48
WIRE -16 64 -16 48
WIRE 96 64 96 48
WIRE 192 80 192 48
WIRE 416 80 416 48
WIRE 560 80 560 64
WIRE 304 128 288 128
WIRE 752 128 688 128
WIRE 864 128 752 128
WIRE 928 128 864 128
WIRE 1024 128 928 128
WIRE 928 144 928 128
WIRE 1024 144 1024 128
WIRE -16 160 -16 144
WIRE 96 160 96 128
WIRE 192 192 192 160
WIRE 304 192 192 192
WIRE 752 192 688 192
WIRE 752 208 752 192
WIRE 928 240 928 208
WIRE 1024 240 1024 224
WIRE 304 256 288 256
WIRE 704 256 688 256
WIRE 752 304 752 288
WIRE 304 320 288 320
WIRE 704 320 704 256
WIRE 704 320 688 320
WIRE 288 384 288 320
WIRE 304 384 288 384
WIRE 864 384 864 128
WIRE 864 384 688 384
WIRE 208 448 192 448
WIRE 304 448 288 448
WIRE 704 448 688 448
WIRE 112 512 96 512
WIRE 304 512 192 512
WIRE 704 512 688 512
WIRE 208 576 192 576
WIRE 304 576 272 576
WIRE 704 576 688 576
WIRE 416 656 416 640
WIRE 576 656 576 640
WIRE 96 688 96 512
WIRE 864 688 864 384
WIRE 864 688 96 688
FLAG 416 656 0
FLAG 576 656 0
FLAG 752 304 0
FLAG -16 48 IN
FLAG 1024 128 OUT
FLAG -16 160 0
FLAG 928 240 0
FLAG 1024 240 0
FLAG 192 576 0
FLAG 192 448 0
FLAG 96 160 0
FLAG 704 448 0
SYMBOL voltage -16 48 R0
WINDOW 123 0 0 Left 0
WINDOW 39 12 125 Left 0
SYMATTR InstName V1
SYMATTR Value 12
SYMBOL res 736 192 R0
SYMATTR InstName R1
SYMATTR Value 15K
SYMBOL cap 912 144 R0
SYMATTR InstName C1
SYMATTR Value 100µ
SYMBOL PowerProducts\\LTM4603 496 336 R0
SYMATTR InstName U1
SYMBOL cap 272 560 R90
WINDOW 0 0 32 VBottom 0
WINDOW 3 32 32 VTop 0
SYMATTR InstName C2
SYMATTR Value .001µ
SYMBOL res 176 64 R0
SYMATTR InstName R2
SYMATTR Value 100K
SYMBOL cap 736 128 R0
WINDOW 0 49 18 Left 0
WINDOW 3 46 56 Left 0
SYMATTR InstName C3
SYMATTR Value 100p
SYMBOL res 304 464 M270
WINDOW 0 32 56 VTop 0
WINDOW 3 0 56 VBottom 0
SYMATTR InstName R3
SYMATTR Value 392K
SYMBOL res 208 528 M270
WINDOW 0 32 56 VTop 0
WINDOW 3 0 56 VBottom 0
SYMATTR InstName R4
SYMATTR Value 392K
SYMBOL cap 80 64 R0
WINDOW 3 48 36 Left 0
WINDOW 39 26 67 Left 0
SYMATTR Value 10µ
SYMATTR SpiceLine x2
SYMATTR InstName C4
SYMBOL res 1008 128 R0
SYMATTR InstName Rload
SYMATTR Value .5
TEXT 944 632 Left 0 !.tran 750u startup
TEXT 520 40 Bottom 0 ;LTM4603 - 6A DC/DC µModule with PLL, Output Tracking and Margining\nInput: 4.5V to 12V     Output: 3V @ 6A,    Fswitch = 1MHz
TEXT -88 688 Left 0 ;Note:\n  If the simulation model is not found please update with the "Sync Release" command from the "Tools" menu.\n  It remains the customer's responsibility to verify proper and reliable operation in the actual application.\n  Component substitution and printed circuit board layout may significantly affect circuit performance or reliability\n  Contact your local sales representative for assistance. This circuit is distributed to customers only for use with LTC parts\n  Copyright © 2011 Linear Technology Inc. All rights reserved.
