Version 4
SHEET 1 1524 788
WIRE 208 -96 176 -96
WIRE 320 -96 288 -96
WIRE 176 -48 176 -96
WIRE 320 -48 320 -96
WIRE -128 16 -224 16
WIRE -48 16 -128 16
WIRE 48 16 -48 16
WIRE 64 16 48 16
WIRE 592 16 448 16
WIRE 688 16 592 16
WIRE 800 16 688 16
WIRE -224 32 -224 16
WIRE -128 32 -128 16
WIRE -48 32 -48 16
WIRE 592 32 592 16
WIRE 688 32 688 16
WIRE 800 32 800 16
WIRE 48 80 48 16
WIRE 64 80 48 80
WIRE 464 80 448 80
WIRE -224 128 -224 112
WIRE -128 128 -128 96
WIRE -48 128 -48 96
WIRE 592 128 592 96
WIRE 688 128 688 96
WIRE 800 128 800 112
WIRE 480 144 448 144
WIRE 512 144 480 144
WIRE 512 160 512 144
WIRE 64 208 -48 208
WIRE 480 208 480 144
WIRE 480 208 448 208
WIRE -48 224 -48 208
WIRE 64 272 48 272
WIRE 512 272 512 240
WIRE 512 272 448 272
WIRE 512 288 512 272
WIRE -48 336 -48 304
WIRE 64 336 -48 336
WIRE 464 336 448 336
WIRE 64 400 48 400
WIRE 464 400 448 400
WIRE 560 400 544 400
WIRE 64 464 48 464
WIRE 496 464 448 464
WIRE 496 480 496 464
WIRE 176 544 176 528
WIRE 320 544 320 528
WIRE 496 560 496 544
FLAG 464 80 0
FLAG 800 128 0
FLAG 560 400 0
FLAG 512 288 0
FLAG 320 544 0
FLAG 176 544 0
FLAG -224 128 0
FLAG 496 560 0
FLAG -224 16 IN
FLAG 800 16 OUT
FLAG 592 128 0
FLAG 688 128 0
FLAG -128 128 0
FLAG -48 128 0
SYMBOL ind 192 -80 R270
WINDOW 0 32 56 VTop 0
WINDOW 3 5 56 VBottom 0
SYMATTR InstName L1
SYMATTR Value 3.3µ
SYMBOL res 496 144 R0
SYMATTR InstName R1
SYMATTR Value 7.5m
SYMBOL res 560 384 R90
WINDOW 0 0 56 VBottom 0
WINDOW 3 32 56 VTop 0
SYMATTR InstName R2
SYMATTR Value 2.74K
SYMBOL voltage -224 16 R0
SYMATTR InstName V1
SYMATTR Value 18
SYMBOL cap 480 480 R0
SYMATTR InstName C2
SYMATTR Value .002µ
SYMBOL res -64 320 M180
WINDOW 0 36 76 Left 0
WINDOW 3 36 40 Left 0
SYMATTR InstName R3
SYMATTR Value 100K
SYMBOL res 784 16 R0
SYMATTR InstName Rload
SYMATTR Value 10
SYMBOL PowerProducts\\LTM4609 256 240 R0
SYMATTR InstName U1
SYMBOL cap 576 32 R0
WINDOW 40 34 81 Left 0
WINDOW 3 30 53 Left 0
SYMATTR SpiceLine2 x2
SYMATTR Value 10µ
SYMATTR InstName C3
SYMATTR SpiceLine Rser=3m
SYMBOL cap 672 32 R0
WINDOW 40 23 77 Left 0
WINDOW 3 24 49 Left 0
SYMATTR SpiceLine2 x2
SYMATTR Value 100µ
SYMATTR InstName C4
SYMATTR SpiceLine Rser=30m
SYMBOL cap -144 32 R0
SYMATTR InstName C1
SYMATTR Value 100µ
SYMATTR SpiceLine Rser=74m
SYMBOL cap -64 32 R0
SYMATTR InstName C5
SYMATTR Value 4.7µ
SYMATTR SpiceLine Rser=5m
TEXT 656 512 Left 0 !.tran 100m startup
TEXT -312 576 Left 0 ;Note:\n  If the simulation model is not found please update with the "Sync Release" command from the "Tools" menu.\n  It remains the customer's responsibility to verify proper and reliable operation in the actual application.\n  Component substitution and printed circuit board layout may significantly affect circuit performance or reliability\n  Contact your local sales representative for assistance. This circuit is distributed to customers only for use with LTC parts\n  Copyright © 2010 Linear Technology Inc. All rights reserved.
TEXT 264 -144 Bottom 0 ;LTM4609 -  High Efficiency Buck-Boost DC/DC µModule\nInput: 18V     Output: 30V @ 3A
