Version 4
SHEET 1 1792 1108
WIRE 80 128 -16 128
WIRE 176 128 80 128
WIRE 256 128 176 128
WIRE 480 128 256 128
WIRE -16 160 -16 128
WIRE 80 176 80 128
WIRE 176 176 176 128
WIRE 256 176 256 128
WIRE 480 192 480 128
WIRE 832 240 752 240
WIRE 960 240 832 240
WIRE 1072 240 960 240
WIRE 1184 240 1072 240
WIRE -16 272 -16 240
WIRE 80 272 80 240
WIRE 176 272 176 240
WIRE 960 272 960 240
WIRE 1072 272 1072 240
WIRE 1184 272 1184 240
WIRE 256 304 256 256
WIRE 368 304 256 304
WIRE 832 304 752 304
WIRE 832 320 832 304
WIRE 368 368 208 368
WIRE 768 368 752 368
WIRE 208 384 208 368
WIRE 960 384 960 336
WIRE 1072 384 1072 336
WIRE 1184 384 1184 352
WIRE 832 416 832 400
WIRE 208 464 208 448
WIRE 368 496 336 496
WIRE 336 560 336 496
WIRE 368 560 336 560
WIRE 288 624 272 624
WIRE 368 624 352 624
WIRE 768 624 752 624
WIRE 864 624 848 624
WIRE 480 704 480 688
WIRE 640 704 640 688
FLAG 480 704 0
FLAG 640 704 0
FLAG 832 416 0
FLAG -16 128 IN
FLAG 1184 240 OUT
FLAG 176 272 0
FLAG -16 272 0
FLAG 960 384 0
FLAG 1072 384 0
FLAG 1184 384 0
FLAG 80 272 0
FLAG 208 464 0
FLAG 768 368 0
FLAG 864 624 0
FLAG 272 624 0
SYMBOL voltage -16 144 R0
WINDOW 123 0 0 Left 0
WINDOW 39 12 125 Left 0
SYMATTR InstName V1
SYMATTR Value 12
SYMBOL res 816 304 R0
SYMATTR InstName R1
SYMATTR Value 19.1K
SYMBOL cap 944 272 R0
SYMATTR InstName C1
SYMATTR Value 22µ
SYMATTR SpiceLine Rser=5m
SYMBOL cap 160 176 R0
WINDOW 3 33 45 Left 0
WINDOW 123 30 73 Left 0
SYMATTR Value 10µ
SYMATTR Value2 x2
SYMATTR InstName C2
SYMBOL cap 1056 272 R0
WINDOW 40 30 61 Left 0
WINDOW 3 41 34 Left 0
SYMATTR SpiceLine2 x2
SYMATTR Value 100µ
SYMATTR InstName C3
SYMATTR SpiceLine Rser=3m
SYMBOL cap 816 240 R0
WINDOW 0 28 15 Left 0
WINDOW 3 29 55 Left 0
SYMATTR InstName C4
SYMATTR Value 47p
SYMBOL PowerProducts\\LTM4606 560 432 R0
SYMATTR InstName U1
SYMBOL cap 192 384 R0
WINDOW 0 29 13 Left 0
WINDOW 3 24 58 Left 0
SYMATTR InstName C5
SYMATTR Value 10µ
SYMBOL res 240 160 R0
SYMATTR InstName R2
SYMATTR Value 100K
SYMBOL res 752 640 R270
WINDOW 0 32 56 VTop 0
WINDOW 3 0 56 VBottom 0
SYMATTR InstName R3
SYMATTR Value 392K
SYMBOL cap 352 608 R90
WINDOW 0 0 32 VBottom 0
WINDOW 3 32 32 VTop 0
SYMATTR InstName C6
SYMATTR Value .0022µ
SYMBOL cap 64 176 R0
SYMATTR InstName C7
SYMATTR Value 150µ
SYMATTR SpiceLine Rser=9m
SYMBOL res 1168 256 R0
SYMATTR InstName Rload
SYMATTR Value 0.417
TEXT 1024 528 Left 0 !.tran 1.5m startup
TEXT 608 72 Bottom 0 ;LTM4606 - 6A, Step-Down DC/DC µModule in 15mm×15mm×2.8mm LGA package\nInput: 12V     Output: 2.5V @ 6A
TEXT -64 728 Left 0 ;Note:\n  If the simulation model is not found please update with the "Sync Release" command from the "Tools" menu.\n  It remains the customer's responsibility to verify proper and reliable operation in the actual application.\n  Component substitution and printed circuit board layout may significantly affect circuit performance or reliability\n  Contact your local sales representative for assistance. This circuit is distributed to customers only for use with LTC parts\n  Copyright © 2009 Linear Technology Inc. All rights reserved.
