Version 4
SHEET 1 2224 1476
WIRE -864 -2032 -976 -2032
WIRE -752 -2032 -864 -2032
WIRE -144 -2032 -752 -2032
WIRE -976 -2016 -976 -2032
WIRE -864 -2016 -864 -2032
WIRE 368 -2016 -48 -2016
WIRE 432 -2016 368 -2016
WIRE -432 -1984 -448 -1984
WIRE -240 -1984 -352 -1984
WIRE -240 -1968 -240 -1984
WIRE -144 -1968 -144 -2032
WIRE -48 -1968 -48 -2016
WIRE 368 -1936 368 -2016
WIRE -976 -1920 -976 -1936
WIRE -864 -1920 -864 -1952
WIRE -336 -1808 -720 -1808
WIRE 368 -1808 368 -1856
WIRE 368 -1808 240 -1808
WIRE -336 -1712 -368 -1712
WIRE 272 -1712 240 -1712
WIRE -336 -1616 -736 -1616
WIRE 464 -1616 240 -1616
WIRE 320 -1520 240 -1520
WIRE -672 -1424 -688 -1424
WIRE -576 -1424 -592 -1424
WIRE -336 -1424 -576 -1424
WIRE 288 -1424 240 -1424
WIRE -336 -1328 -544 -1328
WIRE 304 -1328 240 -1328
WIRE -464 -1232 -480 -1232
WIRE -384 -1232 -400 -1232
WIRE -336 -1232 -384 -1232
WIRE 336 -1232 240 -1232
WIRE -336 -1136 -352 -1136
WIRE 448 -1136 240 -1136
WIRE -240 -1056 -240 -1072
WIRE -144 -1056 -144 -1072
WIRE 144 -1056 144 -1072
WIRE 320 -1056 320 -1520
WIRE 320 -1056 144 -1056
WIRE -736 -1024 -736 -1616
WIRE 48 -1024 48 -1072
WIRE 48 -1024 -736 -1024
WIRE 464 -1024 464 -1616
WIRE 464 -1024 48 -1024
WIRE 528 -1024 464 -1024
WIRE 640 -1024 528 -1024
WIRE 752 -1024 640 -1024
WIRE 880 -1024 752 -1024
WIRE 528 -1008 528 -1024
WIRE 640 -1008 640 -1024
WIRE 752 -1008 752 -1024
WIRE 880 -1008 880 -1024
WIRE -384 -992 -384 -1232
WIRE -384 -992 -496 -992
WIRE 336 -992 336 -1232
WIRE 336 -992 -384 -992
WIRE -544 -976 -544 -1328
WIRE 304 -976 304 -1328
WIRE 304 -976 -544 -976
WIRE -576 -960 -576 -1424
WIRE 288 -960 288 -1424
WIRE 288 -960 -576 -960
WIRE -720 -944 -720 -1808
WIRE 368 -944 368 -1808
WIRE 368 -944 -720 -944
WIRE -752 -928 -752 -2032
WIRE -144 -928 -752 -928
WIRE 528 -928 528 -944
WIRE 640 -928 640 -944
WIRE -48 -896 -48 -1072
WIRE 752 -896 752 -928
WIRE 752 -896 -48 -896
WIRE 880 -896 880 -928
WIRE -352 -880 -384 -880
WIRE -240 -880 -272 -880
WIRE 432 -880 432 -2016
WIRE 432 -880 -48 -880
WIRE 752 -880 752 -896
WIRE -240 -832 -240 -880
WIRE -144 -832 -144 -928
WIRE -48 -832 -48 -880
WIRE -720 -672 -720 -944
WIRE -336 -672 -720 -672
WIRE 368 -672 368 -944
WIRE 368 -672 240 -672
WIRE -336 -576 -368 -576
WIRE 272 -576 240 -576
WIRE -736 -480 -736 -1024
WIRE -336 -480 -736 -480
WIRE 464 -480 464 -1024
WIRE 464 -480 240 -480
WIRE -576 -288 -576 -960
WIRE -336 -288 -576 -288
WIRE 288 -288 288 -960
WIRE 288 -288 240 -288
WIRE -544 -192 -544 -976
WIRE -336 -192 -544 -192
WIRE 304 -192 304 -976
WIRE 304 -192 240 -192
WIRE -496 -96 -496 -992
WIRE -336 -96 -496 -96
WIRE 336 -96 336 -992
WIRE 336 -96 240 -96
WIRE -336 0 -368 0
WIRE 256 0 240 0
WIRE -240 80 -240 64
WIRE -144 80 -144 64
WIRE -368 112 -368 0
WIRE 448 112 448 -1136
WIRE 448 112 -368 112
FLAG -976 -1920 0
FLAG 880 -896 0
FLAG -976 -2032 IN
FLAG 752 -1024 OUT
FLAG -480 -1232 0
FLAG -864 -1920 0
FLAG 752 -880 0
FLAG -688 -1424 0
FLAG -448 -1984 0
FLAG -240 80 0
FLAG -384 -880 0
FLAG -144 -1056 0
FLAG -240 -1056 0
FLAG -352 -1136 0
FLAG -144 80 0
FLAG 528 -928 0
FLAG 640 -928 0
SYMBOL VOLTAGE -976 -2032 R0
WINDOW 3 27 94 Left 2
WINDOW 123 0 0 Left 2
WINDOW 39 0 0 Left 2
SYMATTR Value 12
SYMATTR InstName V1
SYMBOL load2 880 -1008 R0
SYMATTR Value PULSE(0 25 500u 1u 1u .2m .4m)
SYMATTR InstName Iload
SYMBOL cap 624 -1008 R0
WINDOW 3 38 33 Left 2
WINDOW 40 28 58 Left 2
SYMATTR Value 100µ
SYMATTR SpiceLine2 x6
SYMATTR InstName C1
SYMATTR SpiceLine Rser=2m Lser=0.8n
SYMBOL cap -400 -1248 R90
WINDOW 0 0 32 VBottom 2
WINDOW 3 32 32 VTop 2
SYMATTR InstName C2
SYMATTR Value .001µ
SYMBOL cap -880 -2016 R0
WINDOW 40 42 37 Left 2
WINDOW 3 24 64 Left 2
SYMATTR SpiceLine2 x8
SYMATTR Value 22µ
SYMATTR InstName C3
SYMATTR SpiceLine V=35 Rser=5m
SYMBOL res -576 -1440 R90
WINDOW 0 0 56 VBottom 2
WINDOW 3 32 56 VTop 2
SYMATTR InstName R1
SYMATTR Value 90.9K
SYMBOL res -336 -2000 R90
WINDOW 0 0 56 VBottom 2
WINDOW 3 32 56 VTop 2
SYMATTR InstName R2
SYMATTR Value 100K
SYMBOL polcap 512 -1008 R0
WINDOW 3 37 35 Left 2
WINDOW 40 24 62 Left 2
SYMATTR Value 470µ
SYMATTR SpiceLine2 x6
SYMATTR InstName C4
SYMATTR Description Capacitor
SYMATTR Type cap
SYMATTR SpiceLine V=4 Irms=2.8 Rser=0.010 Lser=0
SYMBOL res 352 -1952 R0
WINDOW 3 26 84 Left 2
SYMATTR Value 10K
SYMATTR InstName R3
SYMBOL PowerProducts\\LTM4620 -48 -1520 R0
SYMATTR InstName U1
SYMBOL res -256 -896 R90
WINDOW 0 0 56 VBottom 2
WINDOW 3 32 56 VTop 2
SYMATTR InstName R4
SYMATTR Value 100K
SYMBOL PowerProducts\\LTM4620 -48 -384 R0
SYMATTR InstName U2
SYMBOL res 736 -1024 R0
SYMATTR InstName Rload
SYMATTR Value 0.4
TEXT 800 -304 Left 2 !.tran 750u startup
TEXT 472 -64 Left 2 ;Note:\n  Smaller values are used for TK/SS capacitors to reduce simulation time. See datasheet for typical values.\n  If the simulation model is not found please update with the "Sync Release" command from the "Tools" menu.\n  It remains the customer's responsibility to verify proper and reliable operation in the actual application.\n  Component substitution and printed circuit board layout may significantly affect circuit performance or reliability\n  Contact your local sales representative for assistance. This circuit is distributed to customers only for use with LTC parts\n  Copyright © 2012 Linear Technology Inc. All rights reserved.
TEXT -88 -2040 Bottom 2 ;LTM4620 - Dual 13A, Step-Down DC/DC µModule Regulator\nHigh Efficiency 4-Phase 50A Step-Down Regulator\nInput: 4.5V to 16V     Output: 1V @ 50A
