Version 4
SHEET 1 1752 692
WIRE 272 64 176 64
WIRE 368 64 272 64
WIRE 592 64 368 64
WIRE 176 80 176 64
WIRE 272 80 272 64
WIRE 368 80 368 64
WIRE 592 96 592 64
WIRE 720 96 720 80
WIRE 896 96 848 96
WIRE 1008 96 896 96
WIRE 1120 96 1008 96
WIRE 1200 96 1120 96
WIRE 1312 96 1200 96
WIRE 1008 112 1008 96
WIRE 1120 112 1120 96
WIRE 1200 112 1200 96
WIRE 1312 112 1312 96
WIRE 480 144 464 144
WIRE 848 144 848 96
WIRE 848 144 832 144
WIRE 176 176 176 160
WIRE 272 176 272 144
WIRE 368 176 368 144
WIRE 480 192 464 192
WIRE 1008 192 1008 176
WIRE 1008 192 832 192
WIRE 896 208 896 96
WIRE 1008 208 1008 192
WIRE 1120 208 1120 176
WIRE 1200 208 1200 176
WIRE 1312 208 1312 192
WIRE 480 240 464 240
WIRE 848 240 832 240
WIRE 480 288 464 288
WIRE 896 288 832 288
WIRE 1008 304 1008 288
WIRE 592 352 592 336
WIRE 720 352 720 336
FLAG 592 352 0
FLAG 720 352 0
FLAG 1008 304 0
FLAG 176 64 IN
FLAG 1312 96 OUT
FLAG 464 192 0
FLAG 176 176 0
FLAG 1120 208 0
FLAG 1200 208 0
FLAG 1312 208 0
FLAG 272 176 0
FLAG 368 176 0
SYMBOL voltage 176 64 R0
WINDOW 123 0 0 Left 2
WINDOW 39 12 125 Left 2
WINDOW 3 28 92 Left 2
SYMATTR Value2 ""
SYMATTR SpiceLine ""
SYMATTR Value 12
SYMATTR InstName V1
SYMBOL res 992 192 R0
SYMATTR InstName R1
SYMATTR Value 31.6K
SYMBOL res 880 192 R0
SYMATTR InstName R2
SYMATTR Value 100K
SYMBOL cap 992 112 R0
WINDOW 3 33 53 Left 2
SYMATTR Value 100p
SYMATTR InstName C1
SYMBOL cap 1104 112 R0
SYMATTR InstName C2
SYMATTR Value 22µ
SYMATTR SpiceLine Rser=5m
SYMBOL cap 1184 112 R0
WINDOW 40 25 60 Left 2
WINDOW 3 36 32 Left 2
SYMATTR SpiceLine2 x2
SYMATTR Value 100µ
SYMATTR InstName C3
SYMATTR SpiceLine Rser=3m
SYMBOL PowerProducts\\LTM4600HV 656 208 R0
SYMATTR InstName U1
SYMBOL cap 352 80 R0
WINDOW 3 34 32 Left 2
WINDOW 123 25 60 Left 2
SYMATTR Value 10µ
SYMATTR Value2 x2
SYMATTR InstName C4
SYMATTR SpiceLine Lser=0
SYMBOL cap 256 80 R0
SYMATTR InstName C5
SYMATTR Value 150µ
SYMATTR SpiceLine Rser=9m
SYMBOL res 1296 96 R0
SYMATTR InstName Rload
SYMATTR Value .25
TEXT 1136 296 Left 2 !.tran 3m startup
TEXT 760 0 Center 2 ;LTM4600HV - 10A, 28VIN High Efficiency DC/DC µModule\nInput: 4.5V to 28V     Output: 2.5V @ 10A
TEXT 104 368 Left 2 ;Note:\n  If the simulation model is not found please update with the "Sync Release" command from the "Tools" menu.\n  It remains the customer's responsibility to verify proper and reliable operation in the actual application.\n  Component substitution and printed circuit board layout may significantly affect circuit performance or reliability\n  Contact your local sales representative for assistance. This circuit is distributed to customers only for use with LTC parts\n  Copyright © 2009 Linear Technology Inc. All rights reserved.
