Version 4
SHEET 1 1036 732
WIRE -272 -128 -384 -128
WIRE -176 -128 -272 -128
WIRE -64 -128 -176 -128
WIRE 128 -128 -64 -128
WIRE -384 -112 -384 -128
WIRE -272 -112 -272 -128
WIRE -176 -112 -176 -128
WIRE -64 -112 -64 -128
WIRE 128 -64 128 -128
WIRE 320 -64 320 -80
WIRE -384 -16 -384 -32
WIRE -272 -16 -272 -48
WIRE -176 -16 -176 -48
WIRE -64 -16 -64 -32
WIRE 16 -16 -64 -16
WIRE 544 -16 432 -16
WIRE 624 -16 544 -16
WIRE 720 -16 624 -16
WIRE 816 -16 720 -16
WIRE 816 0 816 -16
WIRE 544 16 544 -16
WIRE 624 16 624 -16
WIRE 448 80 432 80
WIRE 816 96 816 80
WIRE 816 96 768 96
WIRE 544 112 544 80
WIRE 624 112 624 80
WIRE 816 112 816 96
WIRE -80 176 -96 176
WIRE 16 176 0 176
WIRE 448 176 448 80
WIRE 448 176 432 176
WIRE 16 272 0 272
WIRE 480 272 432 272
WIRE 720 272 720 -16
WIRE 720 272 480 272
WIRE 480 288 480 272
WIRE -64 368 -96 368
WIRE 16 368 0 368
WIRE 768 368 768 96
WIRE 768 368 432 368
WIRE -64 464 -96 464
WIRE 16 464 0 464
WIRE 480 464 480 352
WIRE 480 464 432 464
WIRE 512 464 480 464
WIRE 624 464 592 464
WIRE 160 528 160 512
WIRE 288 528 288 512
FLAG -384 -16 0
FLAG -96 176 0
FLAG 160 528 0
FLAG 288 528 0
FLAG -96 464 0
FLAG -96 368 0
FLAG 0 272 0
FLAG 624 464 0
FLAG 816 112 0
FLAG 816 -16 OUT
FLAG -384 -128 IN
FLAG -176 -16 0
FLAG -272 -16 0
FLAG 544 112 0
FLAG 624 112 0
SYMBOL PowerProducts\\LTM4627 224 224 R0
SYMATTR InstName U1
SYMBOL voltage -384 -128 R0
SYMATTR InstName V1
SYMATTR Value 12
SYMBOL res -80 -128 R0
SYMATTR InstName R1
SYMATTR Value 10K
SYMBOL res 16 160 R90
WINDOW 0 0 56 VBottom 0
WINDOW 3 32 56 VTop 0
SYMATTR InstName R2
SYMATTR Value 124K
SYMBOL cap 0 448 R90
WINDOW 0 0 32 VBottom 0
WINDOW 3 32 32 VTop 0
SYMATTR InstName C1
SYMATTR Value .001µ
SYMBOL cap 0 352 R90
WINDOW 0 0 32 VBottom 0
WINDOW 3 32 32 VTop 0
SYMATTR InstName C2
SYMATTR Value 150p
SYMBOL res 496 480 R270
WINDOW 0 32 56 VTop 0
WINDOW 3 0 56 VBottom 0
SYMATTR InstName R3
SYMATTR Value 40.2K
SYMBOL res 800 -16 R0
SYMATTR InstName Rload
SYMATTR Value 0.1
SYMBOL cap -192 -112 R0
SYMATTR InstName C4
SYMATTR Value 22µ
SYMBOL polcap -288 -112 R0
SYMATTR InstName C3
SYMATTR Value 150µ
SYMATTR SpiceLine Rser=9m
SYMBOL cap 464 288 R0
SYMATTR InstName C7
SYMATTR Value 82p
SYMBOL cap 528 16 R0
SYMATTR InstName C5
SYMATTR Value 330µ
SYMATTR SpiceLine Rser=9m
SYMBOL cap 608 16 R0
WINDOW 40 32 76 Left 0
WINDOW 3 27 54 Left 0
SYMATTR SpiceLine2 x2
SYMATTR Value 100µ
SYMATTR InstName C6
SYMATTR SpiceLine Rser=3m
TEXT 688 504 Left 0 !.tran 1m startup
TEXT -416 536 Left 0 ;Note:\n  If the simulation model is not found please update with the "Sync Release" command from the "Tools" menu.\n  It remains the customer's responsibility to verify proper and reliable operation in the actual application.\n  Component substitution and printed circuit board layout may significantly affect circuit performance or reliability\n  Contact your local sales representative for assistance. This circuit is distributed to customers only for use with LTC parts\n  Copyright © 2010 Linear Technology Inc. All rights reserved.
TEXT 240 -152 Bottom 0 ;LTM4627 - 15A, High Efficiency Step-Down DC/DC µModule\nInput: 12V     Output: 1.5V @ 15A
