Version 4
SHEET 1 1868 1108
WIRE 240 128 144 128
WIRE 320 128 240 128
WIRE 800 128 320 128
WIRE 144 144 144 128
WIRE 240 144 240 128
WIRE 496 160 400 160
WIRE 576 160 496 160
WIRE 704 160 576 160
WIRE 400 176 400 160
WIRE 704 176 704 160
WIRE 800 176 800 128
WIRE 496 192 496 160
WIRE 144 240 144 224
WIRE 240 240 240 208
WIRE 1104 240 912 240
WIRE 1216 240 1104 240
WIRE 1312 240 1216 240
WIRE 1104 256 1104 240
WIRE 1216 256 1216 240
WIRE 1312 256 1312 240
WIRE 400 272 400 256
WIRE 496 272 496 256
WIRE 576 304 576 160
WIRE 592 304 576 304
WIRE 928 304 912 304
WIRE 1024 304 1008 304
WIRE 1104 352 1104 320
WIRE 1216 352 1216 320
WIRE 1312 352 1312 336
WIRE 576 368 576 304
WIRE 592 368 576 368
WIRE 928 368 912 368
WIRE 1104 432 912 432
WIRE 1216 432 1104 432
WIRE 1312 432 1216 432
WIRE 1104 448 1104 432
WIRE 1216 448 1216 432
WIRE 1312 448 1312 432
WIRE 592 496 576 496
WIRE 928 496 912 496
WIRE 1024 496 1008 496
WIRE 1104 544 1104 512
WIRE 1216 544 1216 512
WIRE 1312 544 1312 528
WIRE 320 560 320 128
WIRE 576 560 576 496
WIRE 576 560 320 560
WIRE 592 560 576 560
WIRE 928 560 912 560
WIRE 704 640 704 624
WIRE 800 640 800 624
FLAG 704 640 0
FLAG 1024 304 0
FLAG 400 160 IN1
FLAG 1312 240 OUT1
FLAG 496 272 0
FLAG 400 272 0
FLAG 1104 352 0
FLAG 1312 352 0
FLAG 800 640 0
FLAG 144 240 0
FLAG 144 128 IN2
FLAG 1024 496 0
FLAG 1104 544 0
FLAG 1312 544 0
FLAG 1216 352 0
FLAG 1216 544 0
FLAG 1312 432 OUT2
FLAG 240 240 0
SYMBOL voltage 400 160 R0
WINDOW 123 0 0 Left 0
WINDOW 39 12 125 Left 0
WINDOW 3 33 83 Left 0
SYMATTR Value 5
SYMATTR InstName V1
SYMBOL res 912 320 R270
WINDOW 0 32 56 VTop 0
WINDOW 3 0 56 VBottom 0
SYMATTR InstName R1
SYMATTR Value 4.02K
SYMBOL cap 1088 256 R0
WINDOW 0 28 0 Left 0
WINDOW 3 44 35 Left 0
WINDOW 40 32 64 Left 0
SYMATTR InstName C1
SYMATTR Value 100µ
SYMATTR SpiceLine2 x2
SYMATTR SpiceLine Rser=5m
SYMBOL cap 480 192 R0
WINDOW 3 22 51 Left 0
SYMATTR Value 120µ
SYMATTR InstName C2
SYMATTR SpiceLine Rser=10m
SYMBOL PowerProducts\\LTM4614 752 400 R0
SYMATTR InstName U1
SYMBOL voltage 144 128 R0
WINDOW 123 0 0 Left 0
WINDOW 39 12 125 Left 0
WINDOW 3 25 91 Left 0
SYMATTR Value 3.3
SYMATTR InstName V2
SYMBOL res 912 512 R270
WINDOW 0 32 56 VTop 0
WINDOW 3 0 56 VBottom 0
SYMATTR InstName R2
SYMATTR Value 10K
SYMBOL cap 1088 448 R0
WINDOW 0 28 0 Left 0
WINDOW 3 44 35 Left 0
WINDOW 40 32 64 Left 0
SYMATTR InstName C3
SYMATTR Value 100µ
SYMATTR SpiceLine2 x2
SYMATTR SpiceLine Rser=5m
SYMBOL res 1296 240 R0
SYMATTR InstName Rload1
SYMATTR Value 0.45
SYMBOL res 1296 432 R0
SYMATTR InstName Rload2
SYMATTR Value 0.3
SYMBOL cap 1200 256 R0
SYMATTR InstName C4
SYMATTR Value 22µ
SYMATTR SpiceLine Rser=5m
SYMBOL cap 224 144 R0
SYMATTR InstName C5
SYMATTR Value 120µ
SYMATTR SpiceLine Rser=10m
SYMBOL cap 1200 448 R0
SYMATTR InstName C6
SYMATTR Value 22µ
SYMATTR SpiceLine Rser=5m
TEXT 1112 608 Left 0 !.tran 1m startup
TEXT 784 112 Bottom 0 ;LTM4614 - Dual 4A, Step-Down DC/DC µModule in 15mm×15mm×2.8mm LGA package\nInput1: 5V     Output1: 1.8V @ 4A       Input2: 3.3V       Output2: 1.2V@4A
TEXT 72 656 Left 0 ;Note:\n  If the simulation model is not found please update with the "Sync Release" command from the "Tools" menu.\n  It remains the customer's responsibility to verify proper and reliable operation in the actual application.\n  Component substitution and printed circuit board layout may significantly affect circuit performance or reliability\n  Contact your local sales representative for assistance. This circuit is distributed to customers only for use with LTC parts\n  Copyright © 2010 Linear Technology Inc. All rights reserved.
