Version 4
SHEET 1 1792 904
WIRE 80 48 -16 48
WIRE 176 48 80 48
WIRE 272 48 176 48
WIRE 496 48 272 48
WIRE -16 64 -16 48
WIRE 80 80 80 48
WIRE 176 80 176 48
WIRE 272 80 272 48
WIRE 496 80 496 48
WIRE 832 128 768 128
WIRE 960 128 832 128
WIRE 1040 128 960 128
WIRE 1120 128 1040 128
WIRE 1184 128 1120 128
WIRE 1184 144 1184 128
WIRE -16 160 -16 144
WIRE 80 160 80 144
WIRE 176 160 176 144
WIRE 960 160 960 128
WIRE 1040 160 1040 128
WIRE 272 192 272 160
WIRE 384 192 272 192
WIRE 832 192 768 192
WIRE 832 208 832 192
WIRE 1184 240 1184 224
WIRE 1184 240 1152 240
WIRE 384 256 368 256
WIRE 784 256 768 256
WIRE 1184 256 1184 240
WIRE 960 272 960 224
WIRE 1040 272 1040 224
WIRE 832 304 832 288
WIRE 384 320 368 320
WIRE 784 320 784 256
WIRE 784 320 768 320
WIRE 368 384 368 320
WIRE 384 384 368 384
WIRE 1120 384 1120 128
WIRE 1120 384 768 384
WIRE 1152 448 1152 240
WIRE 1152 448 768 448
WIRE 304 576 288 576
WIRE 384 576 368 576
WIRE 496 656 496 640
WIRE 656 656 656 640
FLAG 496 656 0
FLAG 656 656 0
FLAG 832 304 0
FLAG -16 48 IN
FLAG 1184 128 OUT
FLAG 176 160 0
FLAG -16 160 0
FLAG 960 272 0
FLAG 1040 272 0
FLAG 1184 256 0
FLAG 80 160 0
FLAG 288 576 0
SYMBOL voltage -16 48 R0
WINDOW 123 0 0 Left 0
WINDOW 39 12 125 Left 0
SYMATTR InstName V1
SYMATTR Value 12
SYMBOL res 816 192 R0
SYMATTR InstName R1
SYMATTR Value 40.2K
SYMBOL cap 944 160 R0
SYMATTR InstName C1
SYMATTR Value 22µ
SYMATTR SpiceLine Rser=5m
SYMBOL cap 160 80 R0
SYMATTR InstName C2
SYMATTR Value 47µ
SYMBOL cap 1024 160 R0
WINDOW 40 30 81 Left 0
WINDOW 3 27 57 Left 0
SYMATTR SpiceLine2 x2
SYMATTR Value 100µ
SYMATTR InstName C3
SYMATTR SpiceLine Rser=3m
SYMBOL polcap 64 80 R0
SYMATTR InstName C4
SYMATTR Value 150µ
SYMATTR SpiceLine Rser=9m
SYMBOL res 256 64 R0
SYMATTR InstName R2
SYMATTR Value 100K
SYMBOL cap 816 128 R0
WINDOW 0 37 21 Left 0
WINDOW 3 34 57 Left 0
SYMATTR InstName C5
SYMATTR Value 100p
SYMBOL cap 368 560 R90
WINDOW 0 0 32 VBottom 0
WINDOW 3 32 32 VTop 0
SYMATTR InstName C6
SYMATTR Value 2200p
SYMBOL res 1168 128 R0
SYMATTR InstName Rload
SYMATTR Value .125
SYMBOL PowerProducts\\LTM4601A 576 336 R0
SYMATTR InstName U1
TEXT 912 560 Left 0 !.tran 1.2m startup
TEXT 576 40 Bottom 0 ;LTM4601A - 12A, High Efficiency Step-Down DC/DC µModule\nInput: 12V     Output: 1.5V @ 12A
TEXT -72 664 Left 0 ;Note:\n  If the simulation model is not found please update with the "Sync Release" command from the "Tools" menu.\n  It remains the customer's responsibility to verify proper and reliable operation in the actual application.\n  Component substitution and printed circuit board layout may significantly affect circuit performance or reliability\n  Contact your local sales representative for assistance. This circuit is distributed to customers only for use with LTC parts\n  Copyright © 2010 Linear Technology Inc. All rights reserved.
