Version 4
SHEET 1 1304 992
WIRE -592 -320 -672 -320
WIRE -496 -320 -592 -320
WIRE -400 -320 -496 -320
WIRE -272 -320 -400 -320
WIRE -256 -320 -272 -320
WIRE 1088 -320 736 -320
WIRE 1184 -320 1088 -320
WIRE -672 -304 -672 -320
WIRE -592 -304 -592 -320
WIRE -496 -304 -496 -320
WIRE 1088 -304 1088 -320
WIRE 1184 -304 1184 -320
WIRE -400 -224 -400 -320
WIRE -272 -224 -272 -320
WIRE -256 -224 -272 -224
WIRE 848 -224 736 -224
WIRE 944 -224 928 -224
WIRE -672 -208 -672 -224
WIRE -592 -208 -592 -240
WIRE -496 -208 -496 -240
WIRE 1088 -208 1088 -240
WIRE 1184 -208 1184 -224
WIRE -400 -128 -400 -144
WIRE -304 -128 -400 -128
WIRE -256 -128 -304 -128
WIRE 752 -128 736 -128
WIRE 832 -128 816 -128
WIRE -400 -112 -400 -128
WIRE -272 -32 -272 -224
WIRE -256 -32 -272 -32
WIRE 1088 -32 736 -32
WIRE 1184 -32 1088 -32
WIRE -400 -16 -400 -32
WIRE 1088 -16 1088 -32
WIRE 1184 -16 1184 -32
WIRE -272 64 -272 -32
WIRE -256 64 -272 64
WIRE 848 64 736 64
WIRE 944 64 928 64
WIRE 1088 80 1088 48
WIRE 1184 80 1184 64
WIRE -304 160 -304 -128
WIRE -256 160 -304 160
WIRE 752 160 736 160
WIRE 832 160 816 160
WIRE -272 256 -272 64
WIRE -256 256 -272 256
WIRE 784 256 736 256
WIRE 1088 256 784 256
WIRE 1184 256 1088 256
WIRE 784 272 784 256
WIRE 1088 272 1088 256
WIRE 1184 272 1184 256
WIRE -272 352 -272 256
WIRE -256 352 -272 352
WIRE 784 352 784 336
WIRE 784 352 736 352
WIRE 848 352 784 352
WIRE 944 352 928 352
WIRE 1088 368 1088 336
WIRE 1184 368 1184 352
WIRE -304 448 -304 160
WIRE -256 448 -304 448
WIRE 752 448 736 448
WIRE 832 448 816 448
WIRE -272 544 -272 352
WIRE -256 544 -272 544
WIRE 784 544 736 544
WIRE 1088 544 784 544
WIRE 1184 544 1088 544
WIRE 784 560 784 544
WIRE 1088 560 1088 544
WIRE 1184 560 1184 544
WIRE -272 640 -272 544
WIRE -256 640 -272 640
WIRE 784 640 784 624
WIRE 784 640 736 640
WIRE 848 640 784 640
WIRE 944 640 928 640
WIRE 1088 656 1088 624
WIRE 1184 656 1184 640
WIRE -304 736 -304 448
WIRE -256 736 -304 736
WIRE 752 736 736 736
WIRE 832 736 816 736
WIRE -192 816 -192 800
WIRE -96 816 -96 800
WIRE 0 816 0 800
WIRE 96 816 96 800
WIRE 192 816 192 800
WIRE 672 816 672 800
FLAG -192 816 0
FLAG 672 816 0
FLAG -96 816 0
FLAG 0 816 0
FLAG 96 816 0
FLAG 192 816 0
FLAG -672 -208 0
FLAG -400 -16 0
FLAG -672 -320 IN
FLAG 1088 -208 0
FLAG 1184 -208 0
FLAG 944 -224 0
FLAG 832 -128 0
FLAG 1184 -320 OUT1
FLAG 1088 80 0
FLAG 1184 80 0
FLAG 944 64 0
FLAG 832 160 0
FLAG 1184 -32 OUT2
FLAG 1088 368 0
FLAG 1184 368 0
FLAG 944 352 0
FLAG 832 448 0
FLAG 1184 256 OUT3
FLAG 1088 656 0
FLAG 1184 656 0
FLAG 944 640 0
FLAG 832 736 0
FLAG 1184 544 OUT4
FLAG -592 -208 0
FLAG -496 -208 0
SYMBOL LTM4644 240 208 R0
SYMATTR InstName U1
SYMBOL voltage -672 -320 R0
WINDOW 123 24 126 Left 2
WINDOW 39 24 111 Left 2
WINDOW 0 31 23 Left 2
SYMATTR InstName V1
SYMATTR Value 12
SYMBOL res -416 -240 R0
SYMATTR InstName R1
SYMATTR Value 150K
SYMBOL res -416 -128 R0
SYMATTR InstName R2
SYMATTR Value 100K
SYMBOL cap 1072 -304 R0
WINDOW 123 26 69 Left 2
WINDOW 3 38 36 Left 2
SYMATTR Value2 x2
SYMATTR Value 47µ
SYMATTR InstName C1
SYMATTR SpiceLine V=6.3 Irms=0 Rser=0.002 Lser=0 mfg="TDK" pn="C4532X5ROJ47@M" type="X5R"
SYMBOL res 1168 -320 R0
SYMATTR InstName Rload1
SYMATTR Value .825
SYMBOL res 832 -208 R270
WINDOW 0 32 56 VTop 2
WINDOW 3 0 56 VBottom 2
SYMATTR InstName R3
SYMATTR Value 13.3K
SYMBOL cap 752 -112 R270
WINDOW 0 32 32 VTop 2
WINDOW 3 0 32 VBottom 2
SYMATTR InstName C2
SYMATTR Value .001µ
SYMBOL res 1168 -32 R0
SYMATTR InstName Rload2
SYMATTR Value .625
SYMBOL res 832 80 R270
WINDOW 0 32 56 VTop 2
WINDOW 3 0 56 VBottom 2
SYMATTR InstName R4
SYMATTR Value 19.1K
SYMBOL cap 752 176 R270
WINDOW 0 32 32 VTop 2
WINDOW 3 0 32 VBottom 2
SYMATTR InstName C4
SYMATTR Value .001µ
SYMBOL res 1168 256 R0
SYMATTR InstName Rload3
SYMATTR Value .375
SYMBOL res 832 368 R270
WINDOW 0 32 56 VTop 2
WINDOW 3 0 56 VBottom 2
SYMATTR InstName R5
SYMATTR Value 40.2K
SYMBOL cap 752 464 R270
WINDOW 0 32 32 VTop 2
WINDOW 3 0 32 VBottom 2
SYMATTR InstName C6
SYMATTR Value .001µ
SYMBOL res 1168 544 R0
SYMATTR InstName Rload4
SYMATTR Value .3
SYMBOL res 832 656 R270
WINDOW 0 32 56 VTop 2
WINDOW 3 0 56 VBottom 2
SYMATTR InstName R6
SYMATTR Value 60.4K
SYMBOL cap 752 752 R270
WINDOW 0 32 32 VTop 2
WINDOW 3 0 32 VBottom 2
SYMATTR InstName C8
SYMATTR Value .001µ
SYMBOL cap 1072 -16 R0
WINDOW 123 26 69 Left 2
WINDOW 3 38 36 Left 2
SYMATTR Value2 x2
SYMATTR Value 47µ
SYMATTR InstName C3
SYMATTR SpiceLine V=6.3 Irms=0 Rser=0.002 Lser=0 mfg="TDK" pn="C4532X5ROJ47@M" type="X5R"
SYMBOL cap 1072 272 R0
WINDOW 123 26 69 Left 2
WINDOW 3 38 36 Left 2
SYMATTR Value2 x2
SYMATTR Value 47µ
SYMATTR InstName C5
SYMATTR SpiceLine V=6.3 Irms=0 Rser=0.002 Lser=0 mfg="TDK" pn="C4532X5ROJ47@M" type="X5R"
SYMBOL cap 1072 560 R0
WINDOW 123 26 69 Left 2
WINDOW 3 38 36 Left 2
SYMATTR Value2 x2
SYMATTR Value 47µ
SYMATTR InstName C7
SYMATTR SpiceLine V=6.3 Irms=0 Rser=0.002 Lser=0 mfg="TDK" pn="C4532X5ROJ47@M" type="X5R"
SYMBOL polcap -608 -304 R0
SYMATTR InstName C10
SYMATTR Value 68µ
SYMATTR SpiceLine Rser=50m
SYMBOL cap -512 -304 R0
WINDOW 123 26 69 Left 2
WINDOW 3 38 36 Left 2
SYMATTR Value2 x4
SYMATTR Value 22µ
SYMATTR InstName C11
SYMATTR SpiceLine V=6.3 Irms=0 Rser=0.002 Lser=0
SYMBOL cap 768 272 R0
SYMATTR InstName C9
SYMATTR Value 100p
SYMBOL cap 768 560 R0
SYMATTR InstName C12
SYMATTR Value 100p
TEXT 968 744 Left 2 !.tran .5m startup
TEXT 232 -408 Bottom 2 ;LTM4644 - Quad, DC/DC µModule Regulator with Configurable 4A Output Array\nQuad 4A Buck µModule Regulator\nInput: 4V to 14V     Outputs: 3.3V @ 4A, 2.5V @ 4A, 1.5V @ 4A, 1.2V @ 4A
TEXT -392 832 Left 2 ;Note:\n  If the simulation model is not found please update with the "Sync Release" command from the "Tools" menu.\n  It remains the customer's responsibility to verify proper and reliable operation in the actual application.\n  Component substitution and printed circuit board layout may significantly affect circuit performance or reliability\n  Contact your local sales representative for assistance. This circuit is distributed to customers only for use with LTC parts\n  Copyright © 2014 Linear Technology Inc. All rights reserved.
