Version 4
SHEET 1 2048 1244
WIRE -1616 -768 -1744 -768
WIRE -1424 -768 -1616 -768
WIRE -1168 -768 -1424 -768
WIRE -496 -768 -1168 -768
WIRE -1744 -752 -1744 -768
WIRE -1616 -752 -1616 -768
WIRE -784 -704 -1504 -704
WIRE -752 -704 -784 -704
WIRE -656 -704 -672 -704
WIRE -1744 -656 -1744 -672
WIRE -1616 -656 -1616 -688
WIRE -656 -656 -656 -704
WIRE -656 -656 -1296 -656
WIRE -1296 -640 -1296 -656
WIRE -1168 -640 -1168 -768
WIRE -784 -640 -784 -704
WIRE -656 -640 -656 -656
WIRE -1424 -576 -1424 -768
WIRE -1376 -576 -1424 -576
WIRE -496 -576 -496 -768
WIRE -496 -576 -576 -576
WIRE -1376 -384 -1408 -384
WIRE -528 -384 -576 -384
WIRE -1376 -288 -1456 -288
WIRE -512 -288 -576 -288
WIRE -416 -288 -512 -288
WIRE -288 -288 -416 -288
WIRE -208 -288 -288 -288
WIRE -96 -288 -208 -288
WIRE -416 -272 -416 -288
WIRE -288 -272 -288 -288
WIRE -96 -272 -96 -288
WIRE -1376 -192 -1408 -192
WIRE -544 -192 -576 -192
WIRE -416 -192 -416 -208
WIRE -416 -192 -480 -192
WIRE -416 -176 -416 -192
WIRE -288 -176 -288 -208
WIRE -96 -176 -96 -192
WIRE -1408 -96 -1408 -192
WIRE -1376 -96 -1408 -96
WIRE -544 -96 -544 -192
WIRE -544 -96 -576 -96
WIRE -1376 0 -1408 0
WIRE -544 0 -576 0
WIRE -1408 96 -1408 0
WIRE -1376 96 -1408 96
WIRE -544 96 -544 0
WIRE -544 96 -576 96
WIRE -1456 192 -1456 -288
WIRE -1376 192 -1456 192
WIRE -512 192 -512 -288
WIRE -512 192 -576 192
WIRE -1376 384 -1424 384
WIRE -480 384 -480 -192
WIRE -480 384 -576 384
WIRE -544 576 -576 576
WIRE -432 576 -544 576
WIRE -336 576 -368 576
WIRE -1296 752 -1296 736
WIRE -1168 752 -1168 736
WIRE -1040 752 -1040 736
WIRE -912 752 -912 736
WIRE -784 752 -784 736
WIRE -1040 848 -1040 832
WIRE -1424 880 -1424 384
WIRE -544 880 -544 576
WIRE -544 880 -1424 880
WIRE -1504 896 -1504 -704
WIRE -1296 896 -1296 832
WIRE -1296 896 -1504 896
WIRE -1456 912 -1456 192
WIRE -208 912 -208 -288
WIRE -208 912 -1456 912
FLAG -1616 -656 0
FLAG -1744 -656 0
FLAG -1168 752 0
FLAG -912 752 0
FLAG -416 -176 0
FLAG -288 -176 0
FLAG -1744 -768 IN
FLAG -96 -288 OUT
FLAG -336 576 0
FLAG -96 -176 0
FLAG -1040 848 0
SYMBOL LTM4676 -976 48 R0
WINDOW 39 42 898 Center 2
WINDOW 40 50 935 Center 2
SYMATTR SpiceLine VIN_ON=4.4 VIN_OFF=4 Vout_0=1.0 Vout_1=1.0 Ilim0_range=1 Ilim1_range=1 OC_limit0=1 OC_limit1=1 Mode_ll=2 Fault_response=0 Retry_delay=.1m
SYMATTR SpiceLine2 Freq=350K PHs_0=0 PHs_1=180 Ton0_delay=.3m Ton0_rise=.5m Ton1_delay=.3m Ton1_rise=.5m Toff0_delay=.2m Toff0_fall=.3m Toff1_delay=.2m Toff1_fall=.3m Vout0_range=1 Vout1_range=1
SYMATTR InstName U1
SYMBOL cap -1632 -752 R0
WINDOW 3 38 33 Left 2
WINDOW 123 26 57 Left 2
SYMATTR Value 10µ
SYMATTR Value2 x2
SYMATTR InstName C1
SYMBOL voltage -1744 -768 R0
WINDOW 123 0 0 Left 2
WINDOW 39 0 0 Left 2
SYMATTR InstName V1
SYMATTR Value 12
SYMBOL res -768 -688 R270
WINDOW 0 32 56 VTop 2
WINDOW 3 0 56 VBottom 2
SYMATTR InstName R2
SYMATTR Value 10K
SYMBOL cap -432 -272 R0
WINDOW 3 40 39 Left 2
WINDOW 123 27 63 Left 2
SYMATTR Value 100µ
SYMATTR Value2 x6
SYMATTR InstName C2
SYMATTR SpiceLine Rser=2m
SYMBOL cap -304 -272 R0
WINDOW 123 30 78 Left 2
SYMATTR Value2 x2
SYMATTR InstName C3
SYMATTR Value 330µ
SYMATTR SpiceLine Rser=9m
SYMBOL cap -432 592 R270
WINDOW 0 32 32 VTop 2
WINDOW 3 0 32 VBottom 2
WINDOW 39 -24 41 VBottom 2
SYMATTR InstName C7
SYMATTR Value 2.2n
SYMATTR SpiceLine Rser=4.75K Cpar=68p
SYMBOL res -1312 736 R0
SYMATTR InstName R3
SYMATTR Value 10K
SYMBOL current -96 -272 R0
WINDOW 123 24 110 Left 2
WINDOW 39 24 102 Left 2
SYMATTR SpiceLine load
SYMATTR Value PULSE(6.5 20 1.4m 10u 10u .2m .4m)
SYMATTR InstName Iload
SYMBOL res -1056 736 R0
SYMATTR InstName R1
SYMATTR Value 22.6K
TEXT -184 896 Left 2 !.tran 2m startup
TEXT -176 24 Left 1 ;Please read the following notes carefully, since the model presents different user interface\nthan the real part does.\n \n(1) All PMBus communication and memory address related functions and pins are not modeled. \n \n(2) Changes to all parameter values during the simulation running will not be in effect, unless the\nsimulation is stopped and restarted. This is different from the operation of the part, which will\n respond to the commanded changes while running. \n \n(3) Share_clk is not modeled. The default time reference of LTspice is used as the common time \nbase for all time related parameters.\n \n(4) The following parameters can be defined, by right-clicking the symbol of LTC3880. Different \nnomenclature from the datasheet is adopted here. If any value of these parameters are set beyond \nthe scope discribed in the datasheet, the resulting simulation outcomes are not meaningful.\n \n     VIN_ON & VIN_OFF -- in volts, set the unit start/stop input voltages;\n     Freq -- in Hz, sets switching frequency as one of values of 250K, 350K, \n                425K, 500K, 575K, 650K, 750K, 1000K. FREQ_CFG pin needs to float \n                (or short to VDD25), to make the value be in effect;\n     PHs_0 & PHs_1 -- in degree,  set phase angle related to SYNC signal. \n                Certain combinations are restricted as in datasheet. FREQ_CFG \n                pin needs to float (or short to VDD25), to make the value be in effect;\n     Ton0_delay & Ton0_rise; Ton1_delay & Ton1_rise -- in sec, set delay and soft-start timers for \n                channel0 and channel1. Initialization time is not modeled;\n     Toff0_delay & Toff0_fall; Toff1_delay & Toff1_fall -- in sec, set delay and soft-off timers for \n                channel0 and channel1;\n     Vout_0 & Vout_1 -- in volt, set output voltages respectively;\n     Vout0_range & Vout1_range -- set maximum output range, with value 0\n                                                      for 4.096V (CH0) and 5.5V (CH1); value 1\n                                                      for 2.75V\n     Ilim0_range & Ilim1_range -- set maximum sensed peak current range, with value 0\n                           for low 50mV, and 1 for high 75mV;\n     OC_limit0 & OC_limit1 -- set ratio of peak current limit to the maximum value defined\n                      by Ilimit_range. It must be one of values: 0.5, 0.572, 0.642, \n                      0.714, 0.786, 0.858, 0.928, 1;\n     Mode_II -- sets light load operation mode: 0 for discontinuous, 1 for Burst,\n                      2 for forced continuous;\n     Fault_response -- sets the response mode of the unit to occuring faults:\n                                 0 for ignore, 1 for latch up, 2 for Hiccup after Retry_delay time;\n     Retry_delay -- in sec, sets the timer before the unit turns on after a fault;
TEXT -1016 -792 Bottom 2 ;LTM4676 - Dual 13A or Single 26A µModule Regulator with Digital Power System Management\nSingle 26A µModule Buck Regulator with Digital Interface for Control & Monitoring\nInput: 4.5V to 16V     Output: 1V @ 26A, Fsw = 350kHz
TEXT -1592 1032 Left 2 ;Notes: \n  If the simulation model is not found please update with the "Sync Release" command from the "Tools" menu.\n  It remains the customer's responsibility to verify proper and reliable operation in the actual application.\n  Component substitution and printed circuit board layout may significantly affect circuit performance or reliability.\n  Contact your local sales representative for assistance. This circuit is distributed to customers only for use with LTC parts.\n  Copyright © 2014 Linear Technology Inc.  All rights reserved.
