Version 4
SHEET 1 1392 772
WIRE 320 -144 320 -160
WIRE -176 -128 -272 -128
WIRE -80 -128 -176 -128
WIRE 128 -128 -80 -128
WIRE -272 -112 -272 -128
WIRE -176 -112 -176 -128
WIRE -80 -112 -80 -128
WIRE 128 -64 128 -128
WIRE 320 -64 320 -80
WIRE -272 -16 -272 -32
WIRE -176 -16 -176 -48
WIRE -80 -16 -80 -32
WIRE 16 -16 -80 -16
WIRE 480 -16 432 -16
WIRE 528 -16 480 -16
WIRE 640 -16 528 -16
WIRE 752 -16 640 -16
WIRE 528 0 528 -16
WIRE 640 0 640 -16
WIRE 752 0 752 -16
WIRE 464 80 432 80
WIRE 528 96 528 64
WIRE 640 96 640 64
WIRE 752 96 752 80
WIRE -112 176 -208 176
WIRE 16 176 -112 176
WIRE 464 176 464 80
WIRE 464 176 432 176
WIRE -208 192 -208 176
WIRE -112 192 -112 176
WIRE 16 272 0 272
WIRE 480 272 480 -16
WIRE 480 272 432 272
WIRE -208 288 -208 256
WIRE -112 288 -112 272
WIRE -64 368 -80 368
WIRE 16 368 0 368
WIRE 448 368 432 368
WIRE 480 368 480 272
WIRE -64 464 -80 464
WIRE 16 464 0 464
WIRE 480 464 480 432
WIRE 480 464 432 464
WIRE 544 464 480 464
WIRE 640 464 624 464
WIRE 160 528 160 512
WIRE 288 528 288 512
FLAG -272 -16 0
FLAG -112 288 0
FLAG 160 528 0
FLAG 288 528 0
FLAG -80 464 0
FLAG 0 272 0
FLAG 640 464 0
FLAG 528 96 0
FLAG 752 96 0
FLAG 448 368 0
FLAG 752 -16 OUT
FLAG -272 -128 IN
FLAG 640 96 0
FLAG 320 -160 0
FLAG -80 368 0
FLAG -176 -16 0
FLAG -208 288 0
SYMBOL voltage -272 -128 R0
WINDOW 123 0 0 Left 2
WINDOW 39 0 0 Left 2
SYMATTR InstName V1
SYMATTR Value 12
SYMBOL res -96 -128 R0
SYMATTR InstName R1
SYMATTR Value 10K
SYMBOL cap 0 448 R90
WINDOW 0 0 32 VBottom 2
WINDOW 3 32 32 VTop 2
SYMATTR InstName C1
SYMATTR Value .001µ
SYMBOL res 528 480 R270
WINDOW 0 32 56 VTop 2
WINDOW 3 0 56 VBottom 2
SYMATTR InstName R3
SYMATTR Value 60.4K
SYMBOL polcap 512 0 R0
WINDOW 3 24 56 Left 2
WINDOW 123 24 84 Left 2
SYMATTR Value 470µ
SYMATTR InstName C3
SYMATTR SpiceLine V=6.3 Irms=6.7 Rser=0.006 Lser=0 mfg="KEMET" pn="T530X477M006ASE006" type="Tantalum"
SYMATTR Description Capacitor
SYMATTR Type cap
SYMBOL res 736 -16 R0
SYMATTR InstName Rload
SYMATTR Value 60m
SYMBOL cap 464 368 R0
SYMATTR InstName C2
SYMATTR Value 330p
SYMBOL PowerProducts\\LTM4637 224 224 R0
SYMATTR InstName U1
SYMBOL cap 624 0 R0
WINDOW 123 20 56 Left 2
WINDOW 3 35 31 Left 2
SYMATTR Value2 x2
SYMATTR InstName C4
SYMATTR Value 100µ
SYMATTR SpiceLine V=6.3 Irms=0 Rser=0.002 Lser=0 mfg="TDK" pn="C575OX5ROJI07M" type="X5R"
SYMBOL cap 304 -144 R0
SYMATTR InstName C5
SYMATTR Value 2.2µ
SYMBOL cap -192 -112 R0
WINDOW 3 37 33 Left 2
WINDOW 39 22 58 Left 2
SYMATTR InstName C6
SYMATTR Value 22µ
SYMATTR SpiceLine x2
SYMBOL cap -224 192 R0
SYMATTR InstName C7
SYMATTR Value 1.5n
SYMBOL res -128 176 R0
SYMATTR InstName R2
SYMATTR Value 124K
SYMBOL cap 0 352 R90
WINDOW 0 0 32 VBottom 2
WINDOW 3 32 32 VTop 2
SYMATTR InstName C8
SYMATTR Value 150p
TEXT 632 520 Left 2 !.tran 1m startup
TEXT 240 -184 Bottom 2 ;LTM4637 - 20A DC/DC µModule Step-Down Regulator\nHigh Efficiency 20A µModule Buck Regulator\nInput: 4.5V to 20V     Output: 1.2V @ 20A, Fsw = 520kHz
TEXT -392 544 Left 2 ;Notes:\n  A smaller TRACK/SS capacitor is being used to reduce simulation time. Typical value should be 0.1µF.\n  More output capacitors may be needed to meet load step and output voltage requirements.\n  If the simulation model is not found please update with the "Sync Release" command from the "Tools" menu.\n  It remains the customer's responsibility to verify proper and reliable operation in the actual application.\n  Component substitution and printed circuit board layout may significantly affect circuit performance or reliability.\n  Contact your local sales representative for assistance. This circuit is distributed to customers only for use with LTC parts.\n  Copyright © 2013 Linear Technology Inc. All rights reserved.
