Version 4
SHEET 1 2512 904
WIRE 112 176 16 176
WIRE 208 176 112 176
WIRE 384 176 208 176
WIRE 16 208 16 176
WIRE 384 208 384 176
WIRE 512 208 512 192
WIRE 720 208 640 208
WIRE 832 208 720 208
WIRE 912 208 832 208
WIRE 1024 208 912 208
WIRE 112 224 112 176
WIRE 208 224 208 176
WIRE 720 224 720 208
WIRE 832 240 832 208
WIRE 912 240 912 208
WIRE 1024 240 1024 208
WIRE 272 256 256 256
WIRE 640 256 640 208
WIRE 640 256 624 256
WIRE 272 304 256 304
WIRE 720 304 720 288
WIRE 720 304 624 304
WIRE 16 320 16 288
WIRE 112 320 112 288
WIRE 208 320 208 288
WIRE 720 320 720 304
WIRE 272 352 256 352
WIRE 640 352 624 352
WIRE 832 352 832 304
WIRE 912 352 912 304
WIRE 1024 352 1024 320
WIRE 272 400 256 400
WIRE 640 400 624 400
WIRE 720 416 720 400
WIRE 384 464 384 448
WIRE 512 464 512 448
FLAG 384 464 0
FLAG 512 464 0
FLAG 720 416 0
FLAG 16 176 IN
FLAG 1024 208 OUT
FLAG 208 320 0
FLAG 16 320 0
FLAG 832 352 0
FLAG 912 352 0
FLAG 1024 352 0
FLAG 112 320 0
SYMBOL PowerProducts\\LTM4602 448 320 R0
SYMATTR InstName U1
SYMBOL voltage 16 192 R0
WINDOW 123 0 0 Left 0
WINDOW 39 12 125 Left 0
SYMATTR InstName V1
SYMATTR Value 12
SYMBOL res 704 416 M180
WINDOW 0 36 76 Left 0
WINDOW 3 36 40 Left 0
SYMATTR InstName R1
SYMATTR Value 66.5K
SYMBOL cap 704 224 R0
SYMATTR InstName C1
SYMATTR Value 120p
SYMBOL cap 816 240 R0
SYMATTR InstName C2
SYMATTR Value 22µ
SYMATTR SpiceLine Rser=5m
SYMBOL load2 1024 240 R0
WINDOW 3 41 44 Left 0
WINDOW 123 0 0 Left 0
WINDOW 39 20 97 Left 0
SYMATTR Value 5
SYMATTR SpiceLine load
SYMATTR InstName I1
SYMBOL cap 192 224 R0
SYMATTR InstName C3
SYMATTR Value 47µ
SYMBOL cap 896 240 R0
WINDOW 40 24 92 Left 0
SYMATTR InstName C4
SYMATTR Value 100µ
SYMATTR SpiceLine Rser=3m
SYMBOL polcap 96 224 R0
SYMATTR InstName C5
SYMATTR Value 150µ
SYMATTR SpiceLine Rser=9m
TEXT 536 144 Bottom 0 ;LTM4602 - 5A, High Efficiency Step-Down DC/DC µModule\nInput: 12V     Output: 1.5V @ 5A
TEXT -64 488 Left 0 ;Note:\n  If the simulation model is not found please update with the "Sync Release" command from the "Tools" menu.\n  It remains the customer's responsibility to verify proper and reliable operation in the actual application.\n  Component substitution and printed circuit board layout may significantly affect circuit performance or reliability\n  Contact your local sales representative for assistance. This circuit is distributed to customers only for use with LTC parts\n  Copyright © 2006 Linear Technology Inc. All rights reserved.
TEXT 816 448 Left 0 !.tran 2.5m startup
TEXT 1024 376 Top 0 ;Active Load
