Version 4
SHEET 1 1164 680
WIRE -96 16 -192 16
WIRE 48 16 -96 16
WIRE 224 16 48 16
WIRE -192 32 -192 16
WIRE -96 32 -96 16
WIRE 224 48 224 16
WIRE 48 96 48 16
WIRE 80 96 48 96
WIRE 432 96 368 96
WIRE 512 96 496 96
WIRE -192 128 -192 112
WIRE -96 128 -96 96
WIRE -16 160 -32 160
WIRE 80 160 64 160
WIRE 384 160 368 160
WIRE 80 224 64 224
WIRE 384 224 384 160
WIRE 384 224 368 224
WIRE 80 288 64 288
WIRE 224 352 224 336
FLAG -192 128 0
FLAG -32 160 0
FLAG 224 352 0
FLAG 512 96 0
FLAG -96 128 0
SYMBOL PowerProducts\\LTM8040 224 192 R0
SYMATTR InstName U1
SYMBOL voltage -192 16 R0
WINDOW 3 30 97 Left 0
SYMATTR Value 12
SYMATTR InstName V1
SYMBOL res 80 144 R90
WINDOW 0 0 56 VBottom 0
WINDOW 3 32 56 VTop 0
SYMATTR InstName R1
SYMATTR Value 215K
SYMBOL LED 432 112 R270
WINDOW 123 -21 32 VBottom 0
WINDOW 0 72 32 VTop 0
WINDOW 3 0 32 VBottom 0
SYMATTR Value2 N=2
SYMATTR InstName D1
SYMATTR Value LXK2-PW14
SYMBOL cap -112 32 R0
WINDOW 3 38 49 Left 0
SYMATTR Value 1µ
SYMATTR InstName C1
TEXT 432 320 Left 0 !.tran 500u startup
TEXT -384 368 Left 0 ;Note:\n  If the simulation model is not found please update with the "Sync Release" command from the "Tools" menu.\n  It remains the customer's responsibility to verify proper and reliable operation in the actual application.\n  Component substitution and printed circuit board layout may significantly affect circuit performance or reliability.\n  Contact your local sales representative for assistance. This circuit is distributed to customers only for use with LTC parts.\n  Copyright © 2009 Linear Technology Inc. All rights reserved.
TEXT 216 -8 Bottom 0 ;LTM8040 36V Step-Down 1A LED Driver uModule\nInput: 12V       Output: 1A through a string of 2 LEDs\nfsw = 650kHz
