Version 4
SHEET 1 1396 876
WIRE -304 16 -432 16
WIRE -192 16 -304 16
WIRE 240 16 -192 16
WIRE -432 32 -432 16
WIRE -304 32 -304 16
WIRE -192 32 -192 16
WIRE 240 80 240 16
WIRE -432 128 -432 112
WIRE -304 128 -304 96
WIRE -192 128 -192 112
WIRE 80 128 -192 128
WIRE -192 144 -192 128
WIRE 480 208 400 208
WIRE 576 208 480 208
WIRE 0 224 -32 224
WIRE 80 224 64 224
WIRE 480 224 480 208
WIRE 576 224 576 208
WIRE -192 240 -192 224
WIRE 0 320 -32 320
WIRE 80 320 64 320
WIRE 480 320 480 288
WIRE 576 320 576 304
WIRE 416 336 400 336
WIRE -16 416 -32 416
WIRE 80 416 64 416
WIRE 240 480 240 464
FLAG -432 128 0
FLAG 576 320 0
FLAG 480 320 0
FLAG -304 128 0
FLAG 576 208 OUT
FLAG -432 16 IN
FLAG -192 240 0
FLAG -32 224 0
FLAG -32 320 0
FLAG 416 336 0
FLAG 240 480 0
FLAG -32 416 0
SYMBOL cap 464 224 R0
SYMATTR InstName C1
SYMATTR Value 22µ
SYMBOL cap -320 32 R0
SYMATTR InstName C2
SYMATTR Value 10µ
SYMBOL res 560 208 R0
SYMATTR InstName Rload
SYMATTR Value 50
SYMBOL voltage -432 16 R0
WINDOW 123 0 0 Left 2
WINDOW 39 0 0 Left 2
SYMATTR InstName V1
SYMATTR Value 12
SYMBOL res 80 400 R90
WINDOW 0 0 56 VBottom 2
WINDOW 3 32 56 VTop 2
SYMATTR InstName R2
SYMATTR Value 7.15K
SYMBOL res -208 16 R0
SYMATTR InstName R3
SYMATTR Value 200K
SYMBOL res -208 128 R0
SYMATTR InstName R4
SYMATTR Value 90.9K
SYMBOL cap 64 208 R90
WINDOW 0 0 32 VBottom 2
WINDOW 3 32 32 VTop 2
SYMATTR InstName C5
SYMATTR Value 4.7µ
SYMBOL cap 64 304 R90
WINDOW 0 0 32 VBottom 2
WINDOW 3 32 32 VTop 2
SYMATTR InstName C6
SYMATTR Value 10p
SYMBOL PowerProducts\\LTM8047 240 272 R0
SYMATTR InstName U2
TEXT 536 440 Left 2 !.tran 2m startup
TEXT 232 0 Bottom 2 ;LTM8047 - Isolated µModule DC/DC Converter\nInput: 4V to 29V      Outputs: 5V@100mA
TEXT -496 496 Left 2 ;Note:\n  If the simulation model is not found please update with the "Sync Release" command from the "Tools" menu.\n  It remains the customer's responsibility to verify proper and reliable operation in the actual application.\n  Component substitution and printed circuit board layout may significantly affect circuit performance or reliability.\n  Contact your local sales representative for assistance. This circuit is distributed to customers only for use with LTC parts.\n  Copyright © 2012 Linear Technology Inc. All rights reserved.
