Version 4
SHEET 1 1384 716
WIRE 64 -64 -96 -64
WIRE 80 -64 64 -64
WIRE -96 -48 -96 -64
WIRE 80 32 -16 32
WIRE -96 48 -96 32
WIRE -16 128 -16 32
WIRE 80 128 -16 128
WIRE 416 128 368 128
WIRE 480 128 416 128
WIRE 656 128 480 128
WIRE -16 144 -16 128
WIRE 656 160 656 128
WIRE -16 224 -16 208
WIRE 64 224 64 -64
WIRE 80 224 64 224
WIRE 416 224 416 128
WIRE 416 224 368 224
WIRE 416 272 416 224
WIRE 656 272 656 224
WIRE 80 320 64 320
WIRE 656 384 656 352
WIRE 80 416 64 416
WIRE 416 416 416 352
WIRE 416 416 368 416
WIRE 416 432 416 416
WIRE 416 528 416 512
FLAG 64 416 0
FLAG -96 48 0
FLAG -96 -64 IN
FLAG 64 320 0
FLAG 416 528 0
FLAG -16 224 0
FLAG 480 128 OUT
FLAG 656 384 0
SYMBOL voltage -96 -64 R0
WINDOW 123 0 0 Left 2
WINDOW 39 0 0 Left 2
SYMATTR InstName V1
SYMATTR Value 25
SYMBOL cap -32 144 R0
SYMATTR InstName C2
SYMATTR Value 4.7µ
SYMBOL voltage 656 256 R0
WINDOW 3 37 52 Left 2
WINDOW 123 24 138 Left 2
WINDOW 39 18 97 Left 2
WINDOW 0 23 17 Left 2
SYMATTR Value 11.75
SYMATTR SpiceLine Rser=.01
SYMATTR InstName V2
SYMBOL cap 640 160 R0
WINDOW 3 42 34 Left 2
WINDOW 39 27 65 Left 2
WINDOW 40 24 98 Left 2
SYMATTR Value 0.2m
SYMATTR SpiceLine Rser=.01
SYMATTR InstName C3
SYMBOL PowerProducts\\LTM8062A 224 176 R0
SYMATTR InstName U2
SYMBOL res 400 256 R0
SYMATTR InstName R1
SYMATTR Value 1.24Meg
SYMBOL res 400 416 R0
SYMATTR InstName R2
SYMATTR Value 312K
TEXT 552 536 Left 2 !.tran 1.5m startup
TEXT 656 128 Bottom 3 ;BATTERY
TEXT -288 536 Left 2 ;Note:\n  If the simulation model is not found please update with the "Sync Release" command from the "Tools" menu.\n  It remains the customer's responsibility to verify proper and reliable operation in the actual application.\n  Component substitution and printed circuit board layout may significantly affect circuit performance or reliability.\n  Contact your local sales representative for assistance. This circuit is distributed to customers only for use with LTC parts.\n  Copyright © 2012 Linear Technology Inc. All rights reserved.
TEXT 328 -128 Bottom 2 ;LTM8062A - 32Vin, 2A µModule Power Tracking Battery Charger\n2A, 4-Cells Li-Ion Battery Charger\nInput: 18V to 32V     Output: 16.4V @ 2A
RECTANGLE Normal 800 432 544 80 2
