Version 4
SHEET 1 1252 692
WIRE -304 208 -400 208
WIRE -208 208 -304 208
WIRE 48 208 -208 208
WIRE 432 208 336 208
WIRE 528 208 432 208
WIRE -400 224 -400 208
WIRE 432 224 432 208
WIRE 528 224 528 208
WIRE -304 240 -304 208
WIRE 48 272 -96 272
WIRE 352 272 336 272
WIRE -96 288 -96 272
WIRE -96 288 -208 288
WIRE -208 304 -208 288
WIRE 432 320 432 288
WIRE 528 320 528 304
WIRE -400 336 -400 304
WIRE -304 336 -304 304
WIRE -48 336 -128 336
WIRE 48 336 32 336
WIRE 352 336 352 272
WIRE 352 336 336 336
WIRE -208 400 -208 368
WIRE -112 400 -128 400
WIRE 48 400 -32 400
WIRE 192 448 192 432
FLAG 192 448 0
FLAG 432 320 0
FLAG -128 400 0
FLAG -400 336 0
FLAG 528 320 0
FLAG -400 208 IN
FLAG 528 208 OUT
FLAG -304 336 0
FLAG -128 336 0
FLAG -208 400 0
SYMBOL cap -320 240 R0
SYMATTR InstName C1
SYMATTR Value 2.2µ
SYMBOL res -16 384 R90
WINDOW 0 0 56 VBottom 0
WINDOW 3 32 56 VTop 0
SYMATTR InstName R1
SYMATTR Value 154K
SYMBOL voltage -400 208 R0
WINDOW 123 0 0 Left 0
WINDOW 39 0 0 Left 0
SYMATTR InstName V1
SYMATTR Value 24
SYMBOL res 48 320 R90
WINDOW 0 0 56 VBottom 0
WINDOW 3 32 56 VTop 0
SYMATTR InstName R2
SYMATTR Value 56.2K
SYMBOL cap 416 224 R0
SYMATTR InstName C2
SYMATTR Value 22µ
SYMBOL PowerProducts\\LTM8022 192 304 R0
SYMATTR InstName U1
SYMBOL res -224 192 R0
SYMATTR InstName R3
SYMATTR Value 100K
SYMBOL cap -224 304 R0
SYMATTR InstName C3
SYMATTR Value .1µ
SYMBOL res 512 208 R0
SYMATTR InstName Rload
SYMATTR Value 3.3
TEXT 384 416 Left 0 !.tran 1m startup
TEXT 192 152 Bottom 0 ;LTM8022 - 36V, 1A, DC/DC µModule\nInput: 24V       Output: 3.3V @ 1A
TEXT -456 464 Left 0 ;Note:\n  If the simulation model is not found please update with the "Sync Release" command from the "Tools" menu.\n  It remains the customer's responsibility to verify proper and reliable operation in the actual application.\n  Component substitution and printed circuit board layout may significantly affect circuit performance or reliability.\n  Contact your local sales representative for assistance. This circuit is distributed to customers only for use with LTC parts.\n  Copyright © 2008 Linear Technology Inc. All rights reserved.
