Version 4
SHEET 1 2676 980
WIRE 1232 -400 912 -400
WIRE 1440 -400 1232 -400
WIRE 1232 -368 1232 -400
WIRE 704 -304 592 -304
WIRE 832 -304 768 -304
WIRE 960 -304 832 -304
WIRE 1056 -304 960 -304
WIRE 1440 -304 1440 -400
WIRE 1440 -304 1408 -304
WIRE 1536 -304 1440 -304
WIRE 1648 -304 1536 -304
WIRE 592 -288 592 -304
WIRE 832 -288 832 -304
WIRE 960 -288 960 -304
WIRE 1536 -288 1536 -304
WIRE 1648 -288 1648 -304
WIRE 1056 -208 960 -208
WIRE 1472 -208 1408 -208
WIRE 592 -192 592 -208
WIRE 832 -192 832 -224
WIRE 960 -192 960 -208
WIRE 1536 -192 1536 -224
WIRE 1648 -192 1648 -224
WIRE 1056 -112 1024 -112
WIRE 1440 -112 1408 -112
WIRE 1472 -112 1472 -208
WIRE 1536 -112 1472 -112
WIRE 1648 -112 1536 -112
WIRE 960 -96 960 -112
WIRE 1536 -96 1536 -112
WIRE 1648 -96 1648 -112
WIRE 1024 -16 1024 -112
WIRE 1056 -16 1024 -16
WIRE 1472 -16 1472 -112
WIRE 1472 -16 1408 -16
WIRE 1536 0 1536 -32
WIRE 1648 0 1648 -16
WIRE 912 80 912 -400
WIRE 1056 80 912 80
WIRE 1440 80 1440 -112
WIRE 1440 80 1408 80
WIRE 912 176 912 80
WIRE 1056 176 912 176
WIRE 1472 176 1472 -16
WIRE 1472 176 1408 176
WIRE 1440 272 1440 80
WIRE 1440 272 1408 272
WIRE 1472 272 1440 272
WIRE 1568 272 1552 272
WIRE 1472 368 1408 368
WIRE 1536 368 1472 368
WIRE 1648 368 1536 368
WIRE 1536 384 1536 368
WIRE 1648 384 1648 368
WIRE 960 464 944 464
WIRE 1056 464 1040 464
WIRE 1440 464 1408 464
WIRE 1536 480 1536 448
WIRE 1648 480 1648 464
WIRE 960 560 944 560
WIRE 1056 560 1040 560
WIRE 1472 560 1472 368
WIRE 1472 560 1408 560
WIRE 1056 656 1040 656
WIRE 1440 656 1440 464
WIRE 1440 656 1408 656
WIRE 1472 656 1440 656
WIRE 1568 656 1552 656
FLAG 1040 656 0
FLAG 944 464 0
FLAG 1536 -192 0
FLAG 592 -192 0
FLAG 592 -304 IN
FLAG 960 -96 0
FLAG 944 560 0
FLAG 1536 0 0
FLAG 1568 272 0
FLAG 1536 480 0
FLAG 1568 656 0
FLAG 1648 -112 OUT1
FLAG 1648 368 OUT2
FLAG 1648 -192 0
FLAG 1648 0 0
FLAG 1648 480 0
FLAG 1648 -304 SUPERCAP
FLAG 832 -192 0
SYMBOL res 1056 448 R90
WINDOW 0 0 56 VBottom 2
WINDOW 3 32 56 VTop 2
SYMATTR InstName R3
SYMATTR Value 3.09K
SYMBOL cap 1520 -288 R0
SYMATTR InstName C2
SYMATTR Value 47µ
SYMBOL res 1056 544 R90
WINDOW 0 0 56 VBottom 2
WINDOW 3 32 56 VTop 2
SYMATTR InstName R4
SYMATTR Value 68.1K
SYMBOL voltage 592 -304 R0
WINDOW 123 24 124 Left 2
WINDOW 39 24 152 Left 2
SYMATTR Value2 2m 12 2.02m 0
SYMATTR SpiceLine 2.2m 0 2.22m 12)
SYMATTR Value PWL(0 0 20u 12
SYMATTR InstName V1
SYMBOL PowerProducts\\LTM8001 1232 176 R0
SYMATTR InstName U2
SYMBOL res 944 -304 R0
SYMATTR InstName R1
SYMATTR Value 200K
SYMBOL res 944 -208 R0
SYMATTR InstName R2
SYMATTR Value 48.7K
SYMBOL cap 1520 -96 R0
SYMATTR InstName C3
SYMATTR Value 10µ
SYMBOL res 1456 288 R270
WINDOW 0 32 56 VTop 2
WINDOW 3 0 56 VBottom 2
SYMATTR InstName R5
SYMATTR Value 110K
SYMBOL cap 1520 384 R0
SYMATTR InstName C4
SYMATTR Value 4.7µ
SYMBOL res 1456 672 R270
WINDOW 0 32 56 VTop 2
WINDOW 3 0 56 VBottom 2
SYMATTR InstName R6
SYMATTR Value 124K
SYMBOL cap 1632 -288 R0
SYMATTR InstName C5
SYMATTR Value 1m
SYMATTR SpiceLine Rser=0.1
SYMBOL res 1632 -112 R0
SYMATTR InstName R7
SYMATTR Value 3.3
SYMBOL res 1632 368 R0
SYMATTR InstName R8
SYMATTR Value 5
SYMBOL schottky 704 -288 R270
WINDOW 0 32 32 VTop 2
WINDOW 3 0 32 VBottom 2
SYMATTR InstName D1
SYMATTR Value MBRS340
SYMATTR Description Diode
SYMATTR Type diode
SYMBOL cap 816 -288 R0
SYMATTR InstName C1
SYMATTR Value 10µ
TEXT 1632 688 Left 2 !.tran 2.4m
TEXT 664 720 Left 2 ;Note:\n  A small SUPERCAP (C5) is used to reduce simulation time. For a longer holdup time use typical values.\n  If the simulation model is not found please update with the "Sync Release" command from the "Tools" menu.\n  It remains the customer's responsibility to verify proper and reliable operation in the actual application.\n  Component substitution and printed circuit board layout may significantly affect circuit performance or reliability.\n  Contact your local sales representative for assistance. This circuit is distributed to customers only for use with LTC parts.\n  Copyright © 2013 Linear Technology Inc. All rights reserved.
TEXT 1216 -416 Bottom 2 ;LTM8001 - 36Vin, 5A µModule Regulator with 5-Output Configurable LDO Array\nTwo Output Regulator with Supercapacitor Backup Power\nInput: 9V to 15V       Output1: 3.3V @ 1A,  Output2: 2.5V @ 0.5A,  Fsw = 600kHz
