Version 4
SHEET 1 1568 752
WIRE 16 48 -96 48
WIRE 112 48 16 48
WIRE 128 48 112 48
WIRE 816 48 448 48
WIRE 912 48 816 48
WIRE -96 64 -96 48
WIRE 16 64 16 48
WIRE 112 144 112 48
WIRE 128 144 112 144
WIRE 592 144 448 144
WIRE 688 144 592 144
WIRE -96 160 -96 144
WIRE 16 160 16 128
WIRE 912 176 912 48
WIRE 816 192 816 48
WIRE 48 240 32 240
WIRE 128 240 112 240
WIRE 496 240 448 240
WIRE 592 240 592 144
WIRE 688 240 688 144
WIRE 128 336 112 336
WIRE 480 336 448 336
WIRE 32 432 16 432
WIRE 128 432 112 432
WIRE 480 432 480 416
WIRE 480 432 448 432
WIRE 592 432 592 304
WIRE 592 432 480 432
WIRE 688 432 688 320
WIRE 688 432 592 432
WIRE 816 432 816 256
WIRE 816 432 688 432
WIRE 912 432 912 256
WIRE 912 432 816 432
WIRE 912 448 912 432
WIRE 288 496 288 480
FLAG -96 160 0
FLAG 32 240 0
FLAG 16 432 0
FLAG 288 496 0
FLAG 912 448 0
FLAG -96 48 IN
FLAG 912 48 OUT1
FLAG 688 144 OUT2
FLAG 16 160 0
SYMBOL voltage -96 48 R0
WINDOW 123 0 0 Left 2
WINDOW 39 0 0 Left 2
SYMATTR InstName V1
SYMATTR Value 14
SYMBOL cap 112 224 R90
WINDOW 0 0 32 VBottom 2
WINDOW 3 32 32 VTop 2
SYMATTR InstName C1
SYMATTR Value 4.7µ
SYMBOL res 128 416 R90
WINDOW 0 0 56 VBottom 2
WINDOW 3 32 56 VTop 2
SYMATTR InstName R1
SYMATTR Value 6.19K
SYMBOL cap 800 192 R0
SYMATTR InstName C2
SYMATTR Value 22µ
SYMBOL res 464 320 R0
SYMATTR InstName R2
SYMATTR Value 162K
SYMBOL cap 576 240 R0
SYMATTR InstName C3
SYMATTR Value 10µ
SYMBOL res 896 160 R0
SYMATTR InstName Rload1
SYMATTR Value 47.5
SYMBOL LTM8058 288 240 R0
SYMATTR InstName U1
SYMBOL res 672 224 R0
SYMATTR InstName Rload2
SYMATTR Value 41.6
SYMBOL cap 0 64 R0
SYMATTR InstName C5
SYMATTR Value 2.2µ
TEXT 600 472 Left 2 !.tran 2m startup
TEXT 432 0 Bottom 2 ;LTM8058 - Isolated µModule DC/DC Converter with LDO Post Regulator\n2kV Isolated Flyback Converter with LDO Post Regulator\nInput: 4.3V to 29V       Outputs: 5.7V @ 120mA & 5V @ 120mA
TEXT -272 512 Left 2 ;Note:\n  If the simulation model is not found please update with the "Sync Release" command from the "Tools" menu.\n  It remains the customer's responsibility to verify proper and reliable operation in the actual application.\n  Component substitution and printed circuit board layout may significantly affect circuit performance or reliability.\n  Contact your local sales representative for assistance. This circuit is distributed to customers only for use with LTC parts.\n  Copyright © 2014 Linear Technology Inc. All rights reserved.
