Version 4
SHEET 1 1552 680
WIRE 128 16 32 16
WIRE 272 16 128 16
WIRE 304 16 272 16
WIRE 592 16 560 16
WIRE 32 32 32 16
WIRE 128 32 128 16
WIRE 272 112 272 16
WIRE 304 112 272 112
WIRE 592 112 592 16
WIRE 592 112 560 112
WIRE 704 112 592 112
WIRE 784 112 704 112
WIRE 896 112 784 112
WIRE 32 128 32 112
WIRE 128 128 128 96
WIRE 784 128 784 112
WIRE 896 128 896 112
WIRE 160 208 128 208
WIRE 304 208 240 208
WIRE 576 208 560 208
WIRE 672 208 656 208
WIRE 784 224 784 192
WIRE 896 224 896 208
WIRE 208 304 192 304
WIRE 304 304 288 304
WIRE 576 304 560 304
WIRE 128 368 128 208
WIRE 704 368 704 112
WIRE 704 368 128 368
FLAG 576 304 0
FLAG 192 304 0
FLAG 784 224 0
FLAG 896 224 0
FLAG 32 128 0
FLAG 32 16 IN
FLAG 896 112 OUT
FLAG 672 208 0
FLAG 128 128 0
SYMBOL res 304 288 R90
WINDOW 0 0 56 VBottom 2
WINDOW 3 32 56 VTop 2
SYMATTR InstName R3
SYMATTR Value 221K
SYMBOL cap 768 128 R0
SYMATTR InstName C2
SYMATTR Value 22µ
SYMBOL res 256 192 R90
WINDOW 0 0 56 VBottom 2
WINDOW 3 32 56 VTop 2
SYMATTR InstName R4
SYMATTR Value 100K
SYMBOL voltage 32 16 R0
WINDOW 123 24 138 Left 2
WINDOW 39 24 117 Left 2
SYMATTR InstName V1
SYMATTR Value 12
SYMBOL PowerProducts\\LTM8029 432 160 R0
SYMATTR InstName U1
SYMBOL cap 112 32 R0
SYMATTR InstName C1
SYMATTR Value 1µ
SYMBOL res 560 224 R270
WINDOW 0 32 56 VTop 2
WINDOW 3 0 56 VBottom 2
SYMATTR InstName R1
SYMATTR Value 316K
SYMBOL res 880 112 R0
SYMATTR InstName Rload
SYMATTR Value 8.33
TEXT 792 304 Left 2 !.tran 1m startup
TEXT -144 384 Left 2 ;Note:\n  If the simulation model is not found please update with the "Sync Release" command from the "Tools" menu.\n  It remains the customer's responsibility to verify proper and reliable operation in the actual application.\n  Component substitution and printed circuit board layout may significantly affect circuit performance or reliability.\n  Contact your local sales representative for assistance. This circuit is distributed to customers only for use with LTC parts.\n  Copyright © 2012 Linear Technology Inc. All rights reserved.
TEXT 488 -32 Bottom 2 ;LTM8029 - 36Vin, 600mA Step-Down µModule Converter with 5µA Quiescent Current\nµPower High Voltage Step-Down Converter\nInput: 5.6V to 36V       Output: 5V @ 600mA, Fsw = 600kHz
