Version 4
SHEET 1 1104 740
WIRE -272 -32 -368 -32
WIRE -144 -32 -272 -32
WIRE 144 -32 -144 -32
WIRE -368 -16 -368 -32
WIRE -272 -16 -272 -32
WIRE -144 0 -144 -32
WIRE 48 16 48 0
WIRE -368 80 -368 64
WIRE -272 80 -272 48
WIRE -144 96 -144 80
WIRE -64 96 -144 96
WIRE 48 96 48 80
WIRE 144 96 144 -32
WIRE -64 144 -64 96
WIRE -32 144 -64 144
WIRE 240 144 224 144
WIRE -144 176 -144 160
WIRE -144 224 -176 224
WIRE -32 224 -64 224
WIRE 240 224 240 144
WIRE 240 224 224 224
WIRE -128 304 -144 304
WIRE -32 304 -48 304
WIRE 368 304 224 304
WIRE 448 304 368 304
WIRE 544 304 448 304
WIRE 448 320 448 304
WIRE 544 320 544 304
WIRE -32 384 -48 384
WIRE 272 384 224 384
WIRE 272 400 272 384
WIRE 448 416 448 384
WIRE 544 416 544 400
WIRE 96 448 96 432
WIRE 272 496 272 480
WIRE -176 528 -176 224
WIRE 368 528 368 304
WIRE 368 528 -176 528
FLAG 448 416 0
FLAG 272 496 0
FLAG 96 448 0
FLAG 544 416 0
FLAG -144 304 0
FLAG 544 304 OUT
FLAG -368 -32 IN
FLAG 48 0 0
FLAG -144 176 0
FLAG -272 80 0
FLAG -368 80 0
SYMBOL cap 432 320 R0
SYMATTR InstName C1
SYMATTR Value 100µ
SYMBOL voltage -368 -32 R0
WINDOW 123 24 146 Left 0
WINDOW 39 24 125 Left 0
SYMATTR InstName V1
SYMATTR Value 12
SYMBOL res 256 384 R0
SYMATTR InstName R1
SYMATTR Value 154K
SYMBOL res -32 288 R90
WINDOW 0 0 56 VBottom 0
WINDOW 3 32 56 VTop 0
SYMATTR InstName R2
SYMATTR Value 93.1K
SYMBOL res 528 304 R0
SYMATTR InstName Rload
SYMATTR Value 1.1
SYMBOL PowerProducts\\LTM8033 96 272 R0
SYMATTR InstName U1
SYMBOL cap 32 80 M180
WINDOW 0 24 64 Left 0
WINDOW 3 24 8 Left 0
SYMATTR InstName C2
SYMATTR Value 10µ
SYMBOL cap -288 -16 R0
SYMATTR InstName C3
SYMATTR Value 4.7µ
SYMBOL res -160 -16 R0
SYMATTR InstName R4
SYMATTR Value 15K
SYMBOL cap -160 96 R0
WINDOW 0 39 19 Left 0
WINDOW 3 31 57 Left 0
SYMATTR InstName C4
SYMATTR Value 0.22µ
SYMBOL res -160 240 R270
WINDOW 0 32 56 VTop 0
WINDOW 3 0 56 VBottom 0
SYMATTR InstName R3
SYMATTR Value 100K
TEXT 456 488 Left 0 !.tran 1m startup
TEXT -488 536 Left 0 ;Note:\n  If the simulation model is not found please update with the "Sync Release" command from the "Tools" menu.\n  It remains the customer's responsibility to verify proper and reliable operation in the actual application.\n  Component substitution and printed circuit board layout may significantly affect circuit performance or reliability.\n  Contact your local sales representative for assistance. This circuit is distributed to customers only for use with LTC parts.\n  Copyright © 2011 Linear Technology Inc. All rights reserved.
TEXT 120 -40 Bottom 0 ;LTM8033 - Ultralow Noise, EMC Compliant 36Vin, 3A DC/DC µModule Regulator\n425kHz Step-Down DC/DC Converter for Automotive, Wall Adapters or Industrial Supplies\nInput: 12V       Output: 3.3V @ 3A
