Version 4
SHEET 1 1232 740
WIRE -176 0 -288 0
WIRE -64 0 -176 0
WIRE 80 0 -64 0
WIRE -288 16 -288 0
WIRE -176 16 -176 0
WIRE 80 32 80 0
WIRE -64 80 -64 0
WIRE -48 80 -64 80
WIRE 224 80 208 80
WIRE -288 112 -288 96
WIRE -176 112 -176 80
WIRE -48 160 -192 160
WIRE 224 160 224 80
WIRE 224 160 208 160
WIRE -144 240 -160 240
WIRE -48 240 -64 240
WIRE 352 240 208 240
WIRE 432 240 352 240
WIRE 528 240 432 240
WIRE 432 256 432 240
WIRE 528 256 528 240
WIRE -192 288 -192 160
WIRE 224 320 208 320
WIRE 320 320 304 320
WIRE 432 352 432 320
WIRE 528 352 528 336
WIRE 80 384 80 368
WIRE -192 416 -192 368
WIRE 352 416 352 240
WIRE 352 416 -192 416
FLAG 432 352 0
FLAG 320 320 0
FLAG -288 112 0
FLAG 80 384 0
FLAG 528 352 0
FLAG -160 240 0
FLAG 528 240 OUT
FLAG -288 0 IN
FLAG -176 112 0
SYMBOL cap 416 256 R0
SYMATTR InstName C1
SYMATTR Value 100µ
SYMBOL voltage -288 0 R0
WINDOW 123 24 138 Left 2
WINDOW 39 24 117 Left 2
SYMATTR InstName V1
SYMATTR Value 48
SYMBOL res 208 336 R270
WINDOW 0 32 56 VTop 2
WINDOW 3 0 56 VBottom 2
SYMATTR InstName R1
SYMATTR Value 93.1K
SYMBOL res -48 224 R90
WINDOW 0 0 56 VBottom 2
WINDOW 3 32 56 VTop 2
SYMATTR InstName R2
SYMATTR Value 97.6K
SYMBOL res 512 240 R0
SYMATTR InstName Rload
SYMATTR Value 2.5
SYMBOL PowerProducts\\LTM8050 80 208 R0
SYMATTR InstName U1
SYMBOL cap -192 16 R0
SYMATTR InstName C2
SYMATTR Value 4.7µ
SYMBOL res -208 272 R0
SYMATTR InstName R3
SYMATTR Value 100K
TEXT 432 424 Left 2 !.tran 1m startup
TEXT 80 -32 Bottom 2 ;LTM8050 - 58V, 2A Step-Down µModule Converter\n5V Step-Down Converter\nInput: 7.5V to 58V       Output: 5V @ 2A,   Fsw = 400kHz
TEXT -424 464 Left 2 ;Note:\n  If the simulation model is not found please update with the "Sync Release" command from the "Tools" menu.\n  It remains the customer's responsibility to verify proper and reliable operation in the actual application.\n  Component substitution and printed circuit board layout may significantly affect circuit performance or reliability.\n  Contact your local sales representative for assistance. This circuit is distributed to customers only for use with LTC parts.\n  Copyright © 2013 Linear Technology Inc. All rights reserved.
