Version 4
SHEET 1 1552 752
WIRE 32 48 -64 48
WIRE 112 48 32 48
WIRE 128 48 112 48
WIRE 784 48 448 48
WIRE 912 48 784 48
WIRE -64 64 -64 48
WIRE 32 64 32 48
WIRE 784 64 784 48
WIRE 912 64 912 48
WIRE 112 144 112 48
WIRE 128 144 112 144
WIRE 512 144 448 144
WIRE 592 144 512 144
WIRE -64 160 -64 144
WIRE 32 160 32 128
WIRE 592 160 592 144
WIRE 784 160 784 128
WIRE 912 160 912 144
WIRE 512 176 512 144
WIRE 48 240 16 240
WIRE 128 240 112 240
WIRE 464 240 448 240
WIRE 512 256 512 240
WIRE 592 256 592 240
WIRE 128 336 112 336
WIRE 464 336 448 336
WIRE 560 336 544 336
WIRE 32 432 16 432
WIRE 128 432 112 432
WIRE 464 432 448 432
WIRE 288 496 288 480
FLAG -64 160 0
FLAG 16 240 0
FLAG 16 432 0
FLAG 288 496 0
FLAG 912 48 OUT1
FLAG -64 48 IN
FLAG 592 144 OUT2
FLAG 784 160 0
FLAG 512 256 0
FLAG 592 256 0
FLAG 912 160 0
FLAG 464 432 0
FLAG 560 336 0
FLAG 32 160 0
SYMBOL voltage -64 48 R0
WINDOW 123 0 0 Left 2
WINDOW 39 0 0 Left 2
SYMATTR InstName V1
SYMATTR Value 16
SYMBOL cap 112 224 R90
WINDOW 0 0 32 VBottom 2
WINDOW 3 32 32 VTop 2
SYMATTR InstName C1
SYMATTR Value 4.7µ
SYMBOL res 128 416 R90
WINDOW 0 0 56 VBottom 2
WINDOW 3 32 56 VTop 2
SYMATTR InstName R1
SYMATTR Value 6.19K
SYMBOL cap 768 64 R0
SYMATTR InstName C2
SYMATTR Value 22µ
SYMBOL PowerProducts\\LTM8048 288 240 R0
SYMATTR InstName U1
SYMBOL res 448 352 R270
WINDOW 0 32 56 VTop 2
WINDOW 3 0 56 VBottom 2
SYMATTR InstName R2
SYMATTR Value 162K
SYMBOL cap 496 176 R0
SYMATTR InstName C3
SYMATTR Value 10µ
SYMBOL res 576 144 R0
SYMATTR InstName Rload2
SYMATTR Value 42
SYMBOL res 896 48 R0
SYMATTR InstName Rload1
SYMATTR Value 48
SYMBOL cap 16 64 R0
SYMATTR InstName C4
SYMATTR Value 2.2µ
TEXT 584 472 Left 2 !.tran 2m startup
TEXT 464 -16 Bottom 2 ;LTM8048 - 3.1Vin to 32Vin Isolated µModule DC/DC Converter with LDO Post Regulator\n725V DC Isolated Low Noise µModule Regulator\nInput: 3.5V to 30V    Output: 5V @ 120mA & 5.7V @ 120mA (240mA Total Output Current)
TEXT -160 504 Left 2 ;Note:\n  If the simulation model is not found please update with the "Sync Release" command from the "Tools" menu.\n  It remains the customer's responsibility to verify proper and reliable operation in the actual application.\n  Component substitution and printed circuit board layout may significantly affect circuit performance or reliability.\n  Contact your local sales representative for assistance. This circuit is distributed to customers only for use with LTC parts.\n  Copyright © 2012 Linear Technology Inc. All rights reserved.
TEXT 592 120 Bottom 2 ;5V @ 120mA
TEXT 920 24 Bottom 2 ;5.7V @ 120mA
