Version 4
SHEET 1 2168 1788
WIRE -176 -192 -272 -192
WIRE -128 -192 -176 -192
WIRE -32 -192 -128 -192
WIRE -16 -192 -32 -192
WIRE 464 -192 400 -192
WIRE 576 -192 464 -192
WIRE 656 -192 576 -192
WIRE 704 -192 656 -192
WIRE 816 -192 784 -192
WIRE 880 -192 816 -192
WIRE -272 -176 -272 -192
WIRE -128 -176 -128 -192
WIRE 464 -176 464 -192
WIRE 576 -176 576 -192
WIRE 656 -176 656 -192
WIRE 880 -176 880 -192
WIRE -32 -96 -32 -192
WIRE -16 -96 -32 -96
WIRE 432 -96 400 -96
WIRE -272 -80 -272 -96
WIRE -128 -80 -128 -112
WIRE 576 -80 576 -112
WIRE 656 -80 656 -112
WIRE 880 -80 880 -96
WIRE 432 -48 432 -96
WIRE 816 -48 816 -192
WIRE 816 -48 432 -48
WIRE 784 -16 544 -16
WIRE -32 0 -32 -96
WIRE -16 0 -32 0
WIRE 464 0 464 -96
WIRE 464 0 400 0
WIRE 464 16 464 0
WIRE 624 80 624 48
WIRE -32 96 -32 0
WIRE -16 96 -32 96
WIRE 464 112 464 96
WIRE 544 128 544 -16
WIRE 592 128 544 128
WIRE 784 160 784 -16
WIRE 784 160 736 160
WIRE -96 192 -112 192
WIRE -16 192 -32 192
WIRE 592 192 400 192
WIRE 624 256 624 240
WIRE 672 256 672 240
WIRE 416 288 400 288
WIRE -16 384 -32 384
WIRE 848 384 400 384
WIRE -32 480 -32 384
WIRE -16 480 -32 480
WIRE 416 480 400 480
WIRE -112 576 -128 576
WIRE -16 576 -32 576
WIRE 416 576 400 576
WIRE 784 688 784 160
WIRE 784 688 -208 688
WIRE -176 800 -176 -192
WIRE -128 800 -176 800
WIRE -32 800 -128 800
WIRE -16 800 -32 800
WIRE 464 800 400 800
WIRE 576 800 464 800
WIRE 656 800 576 800
WIRE 704 800 656 800
WIRE 816 800 816 -48
WIRE 816 800 784 800
WIRE -128 816 -128 800
WIRE 464 816 464 800
WIRE 576 816 576 800
WIRE 656 816 656 800
WIRE -32 896 -32 800
WIRE -16 896 -32 896
WIRE 432 896 400 896
WIRE -128 912 -128 880
WIRE 576 912 576 880
WIRE 656 912 656 880
WIRE 432 944 432 896
WIRE 816 944 816 800
WIRE 816 944 432 944
WIRE -32 992 -32 896
WIRE -16 992 -32 992
WIRE 464 992 464 896
WIRE 464 992 400 992
WIRE 464 1008 464 992
WIRE -32 1088 -32 992
WIRE -16 1088 -32 1088
WIRE 464 1104 464 1088
WIRE -96 1184 -112 1184
WIRE -16 1184 -32 1184
WIRE 416 1184 400 1184
WIRE -208 1280 -208 688
WIRE -16 1280 -208 1280
WIRE 416 1280 400 1280
WIRE -16 1376 -32 1376
WIRE -32 1472 -32 1376
WIRE -16 1472 -32 1472
WIRE 848 1472 848 384
WIRE 848 1472 400 1472
WIRE -112 1568 -128 1568
WIRE -16 1568 -32 1568
WIRE 416 1568 400 1568
FLAG -128 576 0
FLAG 416 480 0
FLAG -272 -80 0
FLAG 416 576 0
FLAG 464 112 0
FLAG 576 -80 0
FLAG 656 -80 0
FLAG 880 -80 0
FLAG 880 -192 OUT
FLAG -272 -192 IN
FLAG -112 192 0
FLAG -128 -80 0
FLAG -128 1568 0
FLAG 416 1568 0
FLAG 464 1104 0
FLAG 576 912 0
FLAG 656 912 0
FLAG -112 1184 0
FLAG -128 912 0
FLAG 624 48 IN
FLAG 624 256 0
FLAG 672 256 0
SYMBOL res -16 560 R90
WINDOW 0 0 56 VBottom 2
WINDOW 3 32 56 VTop 2
SYMATTR InstName R1
SYMATTR Value 36.5K
SYMBOL voltage -272 -192 R0
WINDOW 123 0 0 Left 2
WINDOW 39 0 0 Left 2
SYMATTR InstName V1
SYMATTR Value 24
SYMBOL res 448 -192 R0
SYMATTR InstName R2
SYMATTR Value 100K
SYMBOL res 448 0 R0
SYMATTR InstName R3
SYMATTR Value 11K
SYMBOL cap 560 -176 R0
SYMATTR InstName C1
SYMATTR Value 22µ
SYMATTR SpiceLine V=25 Irms=0 Rser=0.003 Lser=0 mfg="TDK" pn="C575OX5RIE226M" type="X5R"
SYMBOL polcap 640 -176 R0
WINDOW 3 24 56 Left 2
SYMATTR Value 68µ
SYMATTR InstName C2
SYMATTR Description Capacitor
SYMATTR Type cap
SYMATTR SpiceLine V=20 Irms=0 Rser=0.2 Lser=0
SYMBOL res 864 -192 R0
SYMATTR InstName Rload
SYMATTR Value 12
SYMBOL res 800 -208 R90
WINDOW 0 0 56 VBottom 2
WINDOW 3 32 56 VTop 2
SYMATTR InstName R4
SYMATTR Value 0.008
SYMBOL cap -32 176 R90
WINDOW 0 0 32 VBottom 2
WINDOW 3 32 32 VTop 2
SYMATTR InstName C3
SYMATTR Value 0.1µ
SYMBOL cap -144 -176 R0
WINDOW 3 34 32 Left 2
WINDOW 123 24 57 Left 2
SYMATTR Value 4.7µ
SYMATTR Value2 x2
SYMATTR InstName C4
SYMBOL res -16 1552 R90
WINDOW 0 0 56 VBottom 2
WINDOW 3 32 56 VTop 2
SYMATTR InstName R5
SYMATTR Value 36.5K
SYMBOL res 448 800 R0
SYMATTR InstName R6
SYMATTR Value 100K
SYMBOL res 448 992 R0
SYMATTR InstName R7
SYMATTR Value 9.31K
SYMBOL cap 560 816 R0
SYMATTR InstName C5
SYMATTR Value 22µ
SYMATTR SpiceLine V=25 Irms=0 Rser=0.003 Lser=0 mfg="TDK" pn="C575OX5RIE226M" type="X5R"
SYMBOL polcap 640 816 R0
WINDOW 3 24 56 Left 2
SYMATTR Value 68µ
SYMATTR InstName C6
SYMATTR Description Capacitor
SYMATTR Type cap
SYMATTR SpiceLine V=20 Irms=0 Rser=0.2 Lser=0
SYMBOL res 800 784 R90
WINDOW 0 0 56 VBottom 2
WINDOW 3 32 56 VTop 2
SYMATTR InstName R8
SYMATTR Value 0.008
SYMBOL cap -32 1168 R90
WINDOW 0 0 32 VBottom 2
WINDOW 3 32 32 VTop 2
SYMATTR InstName C7
SYMATTR Value 0.1µ
SYMBOL cap -144 816 R0
WINDOW 3 34 32 Left 2
WINDOW 123 24 57 Left 2
SYMATTR Value 4.7µ
SYMATTR Value2 x2
SYMATTR InstName C8
SYMBOL LT1636 624 160 R0
SYMATTR InstName U4
SYMBOL LTM8055 192 192 R0
SYMATTR InstName U1
SYMBOL LTM8055 192 1184 R0
SYMATTR InstName U2
TEXT 912 1464 Left 2 !.tran 1.2m startup
TEXT 200 -264 Bottom 2 ;LTM8055 - 36Vin, 8.5A Buck-Boost µModule Regulator\nParalleled Synchronous Buck-Boost Regulator with Accurate Current Limit\nInput: 7V to 36V       Output: 12V @ 12A with 24V Input, Fsw = 600kHz
TEXT -296 1632 Left 2 ;Note:\n  If the simulation model is not found please update with the "Sync Release" command from the "Tools" menu.\n  It remains the customer's responsibility to verify proper and reliable operation in the actual application.\n  Component substitution and printed circuit board layout may significantly affect circuit performance or reliability.\n  Contact your local sales representative for assistance. This circuit is distributed to customers only for use with LTC parts.\n  Copyright © 2016 Linear Technology Inc. All rights reserved.
