Version 4
SHEET 1 948 680
WIRE -288 -80 -528 -80
WIRE -208 -80 -288 -80
WIRE -192 -80 -208 -80
WIRE 176 -80 160 -80
WIRE 256 -80 240 -80
WIRE -528 -64 -528 -80
WIRE -288 -64 -288 -80
WIRE -208 -16 -208 -80
WIRE -192 -16 -208 -16
WIRE 224 -16 160 -16
WIRE 224 0 224 -16
WIRE -288 16 -288 0
WIRE -528 32 -528 16
WIRE -192 48 -448 48
WIRE 208 48 160 48
WIRE 368 48 304 48
WIRE 448 48 432 48
WIRE -448 64 -448 48
WIRE -208 112 -208 -16
WIRE -192 112 -208 112
WIRE 176 112 160 112
WIRE 272 112 256 112
WIRE -448 160 -448 144
WIRE -208 176 -208 112
WIRE -192 176 -208 176
WIRE 240 176 160 176
WIRE 320 176 304 176
WIRE -288 240 -304 240
WIRE -192 240 -208 240
WIRE 176 240 160 240
WIRE -16 304 -16 288
FLAG -528 32 0
FLAG -16 304 0
FLAG 176 240 0
FLAG 272 112 0
FLAG 256 -80 0
FLAG 448 48 0
FLAG -528 -80 IN
FLAG -288 16 0
FLAG 320 176 0
FLAG -448 160 0
FLAG -304 240 0
SYMBOL voltage -528 -80 R0
WINDOW 3 23 103 Left 0
WINDOW 123 0 0 Left 0
WINDOW 39 0 0 Left 0
SYMATTR Value 12
SYMATTR InstName V1
SYMBOL res 160 128 R270
WINDOW 0 32 56 VTop 0
WINDOW 3 0 56 VBottom 0
SYMATTR InstName R1
SYMATTR Value 16.9K
SYMBOL cap 176 -64 R270
WINDOW 0 32 32 VTop 0
WINDOW 3 0 32 VBottom 0
SYMATTR InstName C1
SYMATTR Value 10µ
SYMATTR SpiceLine Rser=.010
SYMBOL LED 368 64 R270
WINDOW 123 -21 32 VBottom 0
WINDOW 0 72 32 VTop 0
WINDOW 3 0 32 VBottom 0
SYMATTR Value2 N=7
SYMATTR InstName D1
SYMATTR Value LXK2-PW14
SYMATTR Description Diode
SYMATTR Type diode
SYMBOL cap -304 -64 R0
SYMATTR InstName C2
SYMATTR Value 2.2µ
SYMBOL cap 304 160 R90
WINDOW 0 0 32 VBottom 0
WINDOW 3 32 32 VTop 0
SYMATTR InstName C3
SYMATTR Value .01µ
SYMBOL pmos 304 0 R90
WINDOW 0 -12 57 VLeft 0
WINDOW 3 63 86 VLeft 0
SYMATTR InstName Q1
SYMATTR Value FDS6975
SYMBOL voltage -448 48 R0
WINDOW 123 0 0 Left 0
WINDOW 39 0 0 Left 0
SYMATTR InstName V2
SYMATTR Value PWL(0 0 1u 2)
SYMBOL PowerProducts\\LTM8042-1 -16 80 R0
SYMATTR InstName U1
SYMBOL res -192 224 R90
WINDOW 0 0 56 VBottom 0
WINDOW 3 32 56 VTop 0
SYMATTR InstName R2
SYMATTR Value 19.6K
TEXT 376 288 Left 0 !.tran 1.5m
TEXT 0 -152 Bottom 0 ;LTM8042-1 350mA uModule Boost LED Driver\nInput: 12V       Output: 350mA through a string of 7 LEDs\nfsw = 950kHz
TEXT -616 336 Left 0 ;Note:\n  If the simulation model is not found please update with the "Sync Release" command from the "Tools" menu.\n  It remains the customer's responsibility to verify proper and reliable operation in the actual application.\n  Component substitution and printed circuit board layout may significantly affect circuit performance or reliability.\n  Contact your local sales representative for assistance. This circuit is distributed to customers only for use with LTC parts.\n  Copyright © 2011 Linear Technology Inc. All rights reserved.
