Version 4
SHEET 1 1360 680
WIRE -96 32 -192 32
WIRE -16 32 -96 32
WIRE 0 32 -16 32
WIRE 384 32 320 32
WIRE 480 32 384 32
WIRE -192 48 -192 32
WIRE -96 48 -96 32
WIRE 384 48 384 32
WIRE 480 48 480 32
WIRE -16 128 -16 32
WIRE 0 128 -16 128
WIRE 384 128 384 112
WIRE 384 128 320 128
WIRE -192 144 -192 128
WIRE -96 144 -96 112
WIRE 384 144 384 128
WIRE 480 144 480 128
WIRE -80 224 -96 224
WIRE 0 224 -16 224
WIRE 336 224 320 224
WIRE 432 224 416 224
WIRE 336 320 320 320
FLAG 336 320 0
FLAG -192 144 0
FLAG -96 224 0
FLAG 432 224 0
FLAG 480 144 0
FLAG -192 32 IN
FLAG 480 32 OUT
FLAG 384 144 0
FLAG -96 144 0
SYMBOL LTM8057 160 176 R0
SYMATTR InstName U1
SYMBOL voltage -192 32 R0
WINDOW 123 0 0 Left 2
WINDOW 39 0 0 Left 2
SYMATTR InstName V1
SYMATTR Value 24
SYMBOL cap -16 208 R90
WINDOW 0 0 32 VBottom 2
WINDOW 3 32 32 VTop 2
SYMATTR InstName C1
SYMATTR Value 4.7µ
SYMBOL res 320 240 R270
WINDOW 0 32 56 VTop 2
WINDOW 3 0 56 VBottom 2
SYMATTR InstName R1
SYMATTR Value 6.98K
SYMBOL cap 368 48 R0
SYMATTR InstName C2
SYMATTR Value 22µ
SYMATTR SpiceLine Rser=10m
SYMBOL res 464 32 R0
SYMATTR InstName Rload
SYMATTR Value 16.7
SYMBOL cap -112 48 R0
SYMATTR InstName C3
SYMATTR Value 2.2µ
SYMATTR SpiceLine Rser=10m
TEXT 416 328 Left 2 !.tran 2m startup
TEXT -416 376 Left 2 ;Note:\n  If the simulation model is not found please update with the "Sync Release" command from the "Tools" menu.\n  It remains the customer's responsibility to verify proper and reliable operation in the actual application.\n  Component substitution and printed circuit board layout may significantly affect circuit performance or reliability.\n  Contact your local sales representative for assistance. This circuit is distributed to customers only for use with LTC parts.\n  Copyright © 2015 Linear Technology Inc. All rights reserved.
TEXT 176 -40 Bottom 2 ;LTM8057 - 3.1Vin to 31Vin Isolated µModule DC/DC Converter\n2kV AC Isolated Low Noise µModule Regulator\nInput: 3.1V to 29V    Output: 5V @ 300mA
