Version 4
SHEET 1 1044 680
WIRE -112 0 -224 0
WIRE 0 0 -112 0
WIRE 176 0 0 0
WIRE -224 16 -224 0
WIRE -112 32 -112 0
WIRE 176 32 176 0
WIRE 0 96 0 0
WIRE 32 96 0 96
WIRE 352 96 320 96
WIRE 416 96 352 96
WIRE 528 96 416 96
WIRE 528 112 528 96
WIRE -224 128 -224 96
WIRE -112 128 -112 96
WIRE 416 128 416 96
WIRE -64 224 -80 224
WIRE 32 224 16 224
WIRE 352 224 352 96
WIRE 352 224 320 224
WIRE 416 224 416 192
WIRE 528 224 528 192
WIRE 176 320 176 288
FLAG 176 320 0
FLAG -80 224 0
FLAG 416 224 0
FLAG -224 128 0
FLAG -224 0 IN
FLAG 528 224 0
FLAG 528 96 OUT
FLAG -112 128 0
SYMBOL PowerProducts\\LTM8021 176 160 R0
SYMATTR InstName U1
SYMBOL voltage -224 0 R0
WINDOW 3 27 89 Left 0
WINDOW 123 0 0 Left 0
WINDOW 39 0 0 Left 0
SYMATTR Value 24
SYMATTR InstName V1
SYMBOL res 32 208 R90
WINDOW 0 0 56 VBottom 0
WINDOW 3 32 56 VTop 0
SYMATTR InstName R1
SYMATTR Value 19.1K
SYMATTR SpiceLine tol=1
SYMBOL cap 400 128 R0
SYMATTR InstName C1
SYMATTR Value 4.7µ
SYMATTR SpiceLine V=6.3
SYMBOL cap -128 32 R0
SYMATTR InstName C2
SYMATTR Value 1µ
SYMATTR SpiceLine V=50V
SYMBOL res 512 96 R0
SYMATTR InstName Rload
SYMATTR Value 10
TEXT 384 304 Left 0 !.tran 500u startup
TEXT -416 336 Left 0 ;Note:\n  If the simulation model is not found please update with the "Sync Release" command from the "Tools" menu.\n  It remains the customer's responsibility to verify proper and reliable operation in the actual application.\n  Component substitution and printed circuit board layout may significantly affect circuit performance or reliability.\n  Contact your local sales representative for assistance. This circuit is distributed to customers only for use with LTC parts.\n  Copyright © 2008 Linear Technology Inc. All rights reserved.
TEXT 208 -16 Bottom 0 ;LTM8021 - 40V, 500mA, Step-down DC/DC uModule \nInput: 7.5V to 36V       Output: 5V @ 500mA
