Version 4
SHEET 1 1384 716
WIRE 64 -64 -80 -64
WIRE 80 -64 64 -64
WIRE -80 -48 -80 -64
WIRE 80 32 0 32
WIRE -80 48 -80 32
WIRE 0 128 0 32
WIRE 80 128 0 128
WIRE 416 128 368 128
WIRE 480 128 416 128
WIRE 560 128 480 128
WIRE 0 144 0 128
WIRE 560 160 560 128
WIRE 0 224 0 208
WIRE 64 224 64 -64
WIRE 80 224 64 224
WIRE 416 224 416 128
WIRE 416 224 368 224
WIRE 416 272 416 224
WIRE 560 272 560 224
WIRE 80 320 64 320
WIRE 560 384 560 352
WIRE 80 416 64 416
WIRE 416 416 416 352
WIRE 416 416 368 416
WIRE 416 432 416 416
WIRE 416 528 416 512
FLAG 64 416 0
FLAG -80 48 0
FLAG -80 -64 IN
FLAG 64 320 0
FLAG 416 528 0
FLAG 0 224 0
FLAG 480 128 OUT
FLAG 560 384 0
SYMBOL voltage -80 -64 R0
WINDOW 123 0 0 Left 2
WINDOW 39 0 0 Left 2
SYMATTR InstName V1
SYMATTR Value 19
SYMBOL PowerProducts\\LTM8062 224 176 R0
SYMATTR InstName U1
SYMBOL res 400 256 R0
SYMATTR InstName R1
SYMATTR Value 274K
SYMBOL res 400 416 R0
SYMATTR InstName R2
SYMATTR Value 2.87Meg
SYMBOL cap -16 144 R0
SYMATTR InstName C2
SYMATTR Value 4.7µ
SYMBOL voltage 560 256 R0
WINDOW 3 35 60 Left 2
WINDOW 123 24 138 Left 2
WINDOW 39 18 97 Left 2
SYMATTR Value 2.5
SYMATTR SpiceLine Rser=.01
SYMATTR InstName V2
SYMBOL cap 544 160 R0
WINDOW 3 45 40 Left 2
WINDOW 39 24 77 Left 2
WINDOW 40 24 98 Left 2
SYMATTR Value 1m
SYMATTR SpiceLine Rser=.01
SYMATTR InstName C3
TEXT 552 536 Left 2 !.tran 1.5m startup
TEXT 648 136 Bottom 3 ;BATTERY
TEXT 232 -112 Bottom 2 ;LTM8062 - 32Vin, 2A µModule Power Tracking Battery Charger\n2A LiFePO4 µModule Battery Charger\nInput: 6V to 32V     Output: 3.6V @ 2A
TEXT -272 544 Left 2 ;Note:\n  If the simulation model is not found please update with the "Sync Release" command from the "Tools" menu.\n  It remains the customer's responsibility to verify proper and reliable operation in the actual application.\n  Component substitution and printed circuit board layout may significantly affect circuit performance or reliability.\n  Contact your local sales representative for assistance. This circuit is distributed to customers only for use with LTC parts.\n  Copyright © 2012 Linear Technology Inc. All rights reserved.
RECTANGLE Normal 736 432 512 80 2
