Version 4
SHEET 1 1808 836
WIRE -16 -496 -96 -496
WIRE 32 -496 -16 -496
WIRE 112 -496 32 -496
WIRE 128 -496 112 -496
WIRE 560 -496 448 -496
WIRE -96 -480 -96 -496
WIRE 32 -480 32 -496
WIRE 112 -400 112 -496
WIRE 128 -400 112 -400
WIRE 656 -400 448 -400
WIRE 752 -400 656 -400
WIRE -96 -384 -96 -400
WIRE 32 -384 32 -416
WIRE 752 -384 752 -400
WIRE 560 -352 560 -496
WIRE 32 -304 16 -304
WIRE 128 -304 96 -304
WIRE 656 -304 656 -400
WIRE 752 -288 752 -304
WIRE 464 -208 448 -208
WIRE 560 -208 560 -288
WIRE 560 -208 544 -208
WIRE 32 -112 16 -112
WIRE 128 -112 112 -112
WIRE 560 -112 560 -208
WIRE 560 -112 448 -112
WIRE 656 -112 656 -240
WIRE 656 -112 560 -112
WIRE 288 -48 288 -64
WIRE -16 32 -16 -496
WIRE 112 32 -16 32
WIRE 128 32 112 32
WIRE 560 32 448 32
WIRE -16 48 -16 32
WIRE 112 128 112 32
WIRE 128 128 112 128
WIRE 656 128 656 -112
WIRE 656 128 448 128
WIRE -16 144 -16 112
WIRE 560 176 560 32
WIRE 32 224 16 224
WIRE 128 224 96 224
WIRE 656 224 656 128
WIRE 464 320 448 320
WIRE 560 320 560 240
WIRE 560 320 544 320
WIRE 32 416 16 416
WIRE 128 416 112 416
WIRE 560 416 560 320
WIRE 560 416 448 416
WIRE 656 416 656 288
WIRE 656 416 560 416
WIRE 560 448 560 416
WIRE 288 480 288 464
FLAG 16 224 0
FLAG 16 416 0
FLAG 288 480 0
FLAG 560 448 0
FLAG -16 144 0
FLAG -96 -384 0
FLAG 16 -304 0
FLAG 16 -112 0
FLAG 288 -48 0
FLAG 32 -384 0
FLAG -96 -496 IN
FLAG 752 -400 OUT2
FLAG 752 -288 0
FLAG 560 -496 OUT1
SYMBOL cap 96 208 R90
WINDOW 0 0 32 VBottom 2
WINDOW 3 32 32 VTop 2
SYMATTR InstName C1
SYMATTR Value 4.7µ
SYMBOL res 128 400 R90
WINDOW 0 0 56 VBottom 2
WINDOW 3 32 56 VTop 2
SYMATTR InstName R1
SYMATTR Value 5.9K
SYMBOL cap 544 176 R0
SYMATTR InstName C2
SYMATTR Value 22µ
SYMBOL res 448 336 R270
WINDOW 0 32 56 VTop 2
WINDOW 3 0 56 VBottom 2
SYMATTR InstName R2
SYMATTR Value 162K
SYMBOL cap 640 224 R0
SYMATTR InstName C3
SYMATTR Value 10µ
SYMBOL LTM8058 288 224 R0
SYMATTR InstName U1
SYMBOL cap -32 48 R0
SYMATTR InstName C5
SYMATTR Value 10µ
SYMBOL voltage -96 -496 R0
WINDOW 123 0 0 Left 2
WINDOW 39 0 0 Left 2
SYMATTR InstName V1
SYMATTR Value 20
SYMBOL cap 96 -320 R90
WINDOW 0 0 32 VBottom 2
WINDOW 3 32 32 VTop 2
SYMATTR InstName C4
SYMATTR Value 4.7µ
SYMBOL res 128 -128 R90
WINDOW 0 0 56 VBottom 2
WINDOW 3 32 56 VTop 2
SYMATTR InstName R3
SYMATTR Value 5.9K
SYMBOL cap 544 -352 R0
SYMATTR InstName C6
SYMATTR Value 22µ
SYMBOL res 448 -192 R270
WINDOW 0 32 56 VTop 2
WINDOW 3 0 56 VBottom 2
SYMATTR InstName R4
SYMATTR Value 162K
SYMBOL cap 640 -304 R0
SYMATTR InstName C7
SYMATTR Value 10µ
SYMBOL LTM8058 288 -304 R0
SYMATTR InstName U2
SYMBOL cap 16 -480 R0
SYMATTR InstName C8
SYMATTR Value 10µ
SYMBOL res 736 -400 R0
SYMATTR InstName Rload
SYMATTR Value 33
TEXT 608 448 Left 2 !.tran 2m startup
TEXT 304 -552 Bottom 2 ;LTM8058 - 3.1Vin to 31Vin Isolated µModule DC/DC Converter with LDO Post Regulator\nSeries-Conntected Low Noise Isolated µModule Regulators\nInput: 5V to 28V       Output: 10V @ 300mA
TEXT -296 496 Left 2 ;Note:\n  SS and BYP capacitors have been omitted to speed up simulation times.\n  If the simulation model is not found please update with the "Sync Release" command from the "Tools" menu.\n  It remains the customer's responsibility to verify proper and reliable operation in the actual application.\n  Component substitution and printed circuit board layout may significantly affect circuit performance or reliability.\n  Contact your local sales representative for assistance. This circuit is distributed to customers only for use with LTC parts.\n  Copyright © 2014 Linear Technology Inc. All rights reserved.
TEXT 568 -520 Bottom 2 ;11.2V Flyback
TEXT 752 -424 Bottom 2 ;10V LDO
