Version 4
SHEET 1 1104 740
WIRE -48 64 -160 64
WIRE 96 64 -48 64
WIRE -160 80 -160 64
WIRE 96 96 96 64
WIRE -48 144 -48 64
WIRE -32 144 -48 144
WIRE 240 144 224 144
WIRE -160 176 -160 160
WIRE 240 224 240 144
WIRE 240 224 224 224
WIRE -128 304 -144 304
WIRE -32 304 -48 304
WIRE 384 304 224 304
WIRE 480 304 384 304
WIRE 384 320 384 304
WIRE 480 320 480 304
WIRE 272 384 224 384
WIRE 272 400 272 384
WIRE 384 416 384 384
WIRE 480 416 480 400
WIRE 96 448 96 432
WIRE 272 496 272 480
FLAG 384 416 0
FLAG 272 496 0
FLAG -160 176 0
FLAG 96 448 0
FLAG 480 416 0
FLAG -144 304 0
FLAG 480 304 OUT
FLAG -160 64 IN
SYMBOL cap 368 320 R0
SYMATTR InstName C1
SYMATTR Value 22µ
SYMBOL voltage -160 64 R0
WINDOW 123 0 0 Left 0
WINDOW 39 0 0 Left 0
SYMATTR InstName V1
SYMATTR Value 24
SYMBOL res 256 384 R0
SYMATTR InstName R1
SYMATTR Value 34.8K
SYMBOL res -32 288 R90
WINDOW 0 0 56 VBottom 0
WINDOW 3 32 56 VTop 0
SYMATTR InstName R2
SYMATTR Value 47.5K
SYMBOL PowerProducts\\LTM8025 96 272 R0
SYMATTR InstName U1
SYMBOL res 464 304 R0
SYMATTR InstName Rload
SYMATTR Value 4
TEXT 400 504 Left 0 !.tran 500u startup
TEXT 112 32 Bottom 0 ;LTM8025, 36V, 3A Step-Down µModule Regulator\nInput: 24V       Output: 12V @ 3A
TEXT -456 528 Left 0 ;Note:\n  If the simulation model is not found please update with the "Sync Release" command from the "Tools" menu.\n  It remains the customer's responsibility to verify proper and reliable operation in the actual application.\n  Component substitution and printed circuit board layout may significantly affect circuit performance or reliability.\n  Contact your local sales representative for assistance. This circuit is distributed to customers only for use with LTC parts.\n  Copyright © 2010 Linear Technology Inc. All rights reserved.
