Version 4
SHEET 1 1472 680
WIRE -64 -64 -160 -64
WIRE 16 -64 -64 -64
WIRE 192 -64 16 -64
WIRE -160 -48 -160 -64
WIRE -64 -48 -64 -64
WIRE 192 -32 192 -64
WIRE 16 0 16 -64
WIRE 32 0 16 0
WIRE 464 0 352 0
WIRE -160 48 -160 32
WIRE -64 48 -64 16
WIRE 32 80 16 80
WIRE 464 80 464 0
WIRE 464 80 352 80
WIRE 512 80 464 80
WIRE 608 80 512 80
WIRE 512 96 512 80
WIRE 608 96 608 80
WIRE -64 160 -80 160
WIRE 32 160 0 160
WIRE 368 160 352 160
WIRE 464 160 464 80
WIRE 464 160 448 160
WIRE 512 192 512 160
WIRE 608 192 608 176
WIRE -64 256 -80 256
WIRE 32 256 16 256
WIRE 192 320 192 304
FLAG -160 48 0
FLAG -80 256 0
FLAG 192 320 0
FLAG 608 192 0
FLAG -160 -64 IN
FLAG 608 80 OUT
FLAG 512 192 0
FLAG 16 80 0
FLAG -80 160 0
FLAG -64 48 0
SYMBOL voltage -160 -64 R0
SYMATTR InstName V1
SYMATTR Value 24
SYMBOL res 32 240 R90
WINDOW 0 0 56 VBottom 2
WINDOW 3 32 56 VTop 2
SYMATTR InstName R1
SYMATTR Value 41.2K
SYMBOL res 592 80 R0
SYMATTR InstName Rload
SYMATTR Value 1
SYMBOL cap 496 96 R0
SYMATTR InstName C1
SYMATTR Value 100µ
SYMBOL cap 0 144 R90
WINDOW 0 0 32 VBottom 2
WINDOW 3 32 32 VTop 2
SYMATTR InstName C2
SYMATTR Value .001µ
SYMBOL LTM8003-3.3 192 144 R0
SYMATTR InstName U2
SYMBOL res 464 144 R90
WINDOW 0 0 56 VBottom 2
WINDOW 3 32 56 VTop 2
SYMATTR InstName R2
SYMATTR Value 100K
SYMBOL cap -80 -48 R0
SYMATTR InstName C3
SYMATTR Value 4.7µ
TEXT 480 288 Left 2 !.tran 1m startup
TEXT 224 -88 Bottom 2 ;LTM8003-3.3 - 40Vin, 3.5A Step-Down µModule Regulator\nLow EMI Buck µModule Regulator\nInput: 6.0V to 40V       Output: 3.3V @  3.5A, Fsw = 1MHz
TEXT -408 336 Left 2 ;Note:\n  If the simulation model is not found please update with the "Sync Release" command from the "Tools" menu.\n  It remains the customer's responsibility to verify proper and reliable operation in the actual application.\n  Component substitution and printed circuit board layout may significantly affect circuit performance or reliability.\n  Contact your local sales representative for assistance. This circuit is distributed to customers only for use with LTC parts.\n  Copyright © 2016 Linear Technology Inc. All rights reserved.
