Version 4
SHEET 1 1552 708
WIRE -16 48 -112 48
WIRE 64 48 -16 48
WIRE 80 48 64 48
WIRE 672 48 304 48
WIRE 768 48 672 48
WIRE -112 64 -112 48
WIRE -16 64 -16 48
WIRE 672 64 672 48
WIRE 768 64 768 48
WIRE 64 144 64 48
WIRE 80 144 64 144
WIRE 480 144 304 144
WIRE 560 144 480 144
WIRE -112 160 -112 144
WIRE -16 160 -16 128
WIRE 480 160 480 144
WIRE 560 160 560 144
WIRE 672 160 672 128
WIRE 768 160 768 144
WIRE 320 240 304 240
WIRE 416 240 400 240
WIRE 480 256 480 224
WIRE 560 256 560 240
WIRE -16 336 -32 336
WIRE 80 336 64 336
WIRE 80 432 64 432
WIRE 320 432 304 432
FLAG 64 432 0
FLAG -112 160 0
FLAG -112 48 IN
FLAG 768 48 OUT1
FLAG -32 336 0
FLAG 560 144 OUT2
FLAG 320 432 0
FLAG 416 240 0
FLAG 672 160 0
FLAG 480 256 0
FLAG 560 256 0
FLAG 768 160 0
FLAG -16 160 0
SYMBOL voltage -112 48 R0
SYMATTR InstName V1
SYMATTR Value 24
SYMBOL cap 656 128 M180
WINDOW 0 43 33 Left 2
WINDOW 3 45 -1 Left 2
SYMATTR InstName C1
SYMATTR Value 22µ
SYMATTR SpiceLine Rser=30m
SYMBOL res 304 256 R270
WINDOW 0 32 56 VTop 2
WINDOW 3 0 56 VBottom 2
SYMATTR InstName R2
SYMATTR Value 162K
SYMBOL PowerProducts\\LTM8068 192 240 R0
SYMATTR InstName U1
SYMBOL res 80 320 R90
WINDOW 0 0 56 VBottom 2
WINDOW 3 32 56 VTop 2
SYMATTR InstName R1
SYMATTR Value 7.32K
SYMBOL cap 464 160 R0
SYMATTR InstName C2
SYMATTR Value 10µ
SYMATTR SpiceLine Rser=5m
SYMBOL res 544 144 R0
SYMATTR InstName Rload2
SYMATTR Value 16.67
SYMBOL res 752 48 R0
SYMATTR InstName Rload1
SYMATTR Value 604
SYMBOL cap -32 64 R0
SYMATTR InstName C3
SYMATTR Value 2.2µ
TEXT 424 448 Left 2 !.tran 7m startup
TEXT 400 -16 Bottom 2 ;LTM8068 - 2.8Vin to 40Vin Isolated µModule DC/DC Converter with LDO Post Regulator\n2kV AC Isolated Low Noise µModule Regulator with Post LDO Regulator\nInput: 4.5V to 40V       Output: 5.6V @ 460mA Max, 5V @ 300mA Max
TEXT -216 480 Left 2 ;Note:\n  If the simulation model is not found please update with the "Sync Release" command from the "Tools" menu.\n  It remains the customer's responsibility to verify proper and reliable operation in the actual application.\n  Component substitution and printed circuit board layout may significantly affect circuit performance or reliability.\n  Contact your local sales representative for assistance. This circuit is distributed to customers only for use with LTC parts.\n  Copyright © 2016 Linear Technology Inc. All rights reserved.
