Version 4
SHEET 1 1496 708
WIRE -224 48 -320 48
WIRE 288 48 -224 48
WIRE -320 64 -320 48
WIRE 288 64 288 48
WIRE -224 112 -224 48
WIRE -192 112 -224 112
WIRE -80 112 -112 112
WIRE 128 112 -80 112
WIRE -80 128 -80 112
WIRE -224 144 -224 112
WIRE -320 160 -320 144
WIRE 480 192 448 192
WIRE 576 192 480 192
WIRE 48 208 32 208
WIRE 128 208 112 208
WIRE 480 208 480 192
WIRE 576 208 576 192
WIRE -224 224 -224 208
WIRE -80 224 -80 208
WIRE 128 304 112 304
WIRE 480 320 480 272
WIRE 480 320 448 320
WIRE 576 320 576 288
WIRE 576 320 480 320
WIRE 576 336 576 320
WIRE 32 400 16 400
WIRE 128 400 112 400
WIRE 288 464 288 448
FLAG -320 160 0
FLAG 32 208 0
FLAG 16 400 0
FLAG 288 464 0
FLAG 576 336 0
FLAG 576 192 OUT
FLAG -320 48 IN
FLAG 48 304 0
FLAG -80 224 0
FLAG -224 224 0
SYMBOL voltage -320 48 R0
WINDOW 123 0 0 Left 2
WINDOW 39 0 0 Left 2
SYMATTR InstName V1
SYMATTR Value 12
SYMBOL cap 112 192 R90
WINDOW 0 0 32 VBottom 2
WINDOW 3 32 32 VTop 2
SYMATTR InstName C1
SYMATTR Value 4.7µ
SYMBOL res 128 384 R90
WINDOW 0 0 56 VBottom 2
WINDOW 3 32 56 VTop 2
SYMATTR InstName R1
SYMATTR Value 8.45K
SYMBOL cap 464 208 R0
SYMATTR InstName C2
SYMATTR Value 100µ
SYMATTR SpiceLine Rser=10m
SYMBOL LTM8046 288 256 R0
SYMATTR InstName U1
SYMBOL cap 112 288 R90
WINDOW 0 0 32 VBottom 2
WINDOW 3 32 32 VTop 2
SYMATTR InstName C3
SYMATTR Value 0.01µ
SYMBOL res -96 112 R0
SYMATTR InstName R2
SYMATTR Value 90.9K
SYMBOL res -96 96 R90
WINDOW 0 0 56 VBottom 2
WINDOW 3 32 56 VTop 2
SYMATTR InstName R3
SYMATTR Value 102K
SYMBOL res 560 192 R0
SYMATTR InstName Rload
SYMATTR Value 14.3
SYMBOL cap -240 144 R0
SYMATTR InstName C4
SYMATTR Value 10µ
TEXT 472 432 Left 2 !.tran 15m startup
TEXT 136 32 Bottom 2 ;LTM8046 3.1Vin to 31Vin, 2kVAC Isolated DC/DC µModule Converter\n5V Isolated Flyback Converter\nInput: 3.2V to 26V  Output: 5V @ 350mA with Vin=12V
TEXT -408 480 Left 2 ;Note:\n  If the simulation model is not found please update with the "Sync Release" command from the "Tools" menu.\n  It remains the customer's responsibility to verify proper and reliable operation in the actual application.\n  Component substitution and printed circuit board layout may significantly affect circuit performance or reliability.\n  Contact your local sales representative for assistance. This circuit is distributed to customers only for use with LTC parts.\n  Copyright © 2015 Linear Technology Inc. All rights reserved.
