Version 4
SHEET 1 1556 1236
WIRE -160 0 -272 0
WIRE -48 0 -160 0
WIRE 144 0 -48 0
WIRE -272 16 -272 0
WIRE -160 16 -160 0
WIRE 144 32 144 0
WIRE -48 96 -48 0
WIRE -32 96 -48 96
WIRE 352 96 320 96
WIRE 400 96 352 96
WIRE 512 96 400 96
WIRE -272 112 -272 96
WIRE -160 112 -160 80
WIRE 400 112 400 96
WIRE 512 112 512 96
WIRE -144 176 -176 176
WIRE -32 176 -64 176
WIRE 336 176 320 176
WIRE 400 208 400 176
WIRE 512 208 512 192
WIRE -32 256 -48 256
WIRE 336 256 336 176
WIRE 336 256 320 256
WIRE -128 336 -144 336
WIRE -32 336 -48 336
WIRE 368 336 320 336
WIRE 464 336 448 336
WIRE -128 416 -144 416
WIRE -32 416 -64 416
WIRE 144 496 144 480
WIRE -176 528 -176 176
WIRE 352 528 352 96
WIRE 352 528 -176 528
FLAG -272 112 0
FLAG -144 416 0
FLAG 512 208 0
FLAG 400 208 0
FLAG -272 0 IN
FLAG 512 96 OUT
FLAG 144 496 0
FLAG 464 336 0
FLAG -48 256 0
FLAG -144 336 0
FLAG -160 112 0
SYMBOL voltage -272 0 R0
WINDOW 123 0 0 Left 2
WINDOW 39 0 0 Left 2
WINDOW 0 21 23 Left 2
WINDOW 3 21 92 Left 2
SYMATTR InstName V1
SYMATTR Value 48
SYMBOL res -32 320 R90
WINDOW 0 0 56 VBottom 2
WINDOW 3 32 56 VTop 2
SYMATTR InstName R1
SYMATTR Value 32.4k
SYMBOL res 464 320 R90
WINDOW 0 0 56 VBottom 2
WINDOW 3 32 56 VTop 2
SYMATTR InstName R2
SYMATTR Value 47.5k
SYMBOL res 496 96 R0
SYMATTR InstName Rload
SYMATTR Value 1.67
SYMBOL cap 384 112 R0
SYMATTR SpiceLine Rser=5m
SYMATTR InstName C1
SYMATTR Value 100µ
SYMBOL LTM8073 144 256 R0
SYMATTR InstName U1
SYMBOL cap -64 400 R90
WINDOW 0 0 32 VBottom 2
WINDOW 3 32 32 VTop 2
SYMATTR InstName C2
SYMATTR Value .001µ
SYMBOL cap -176 16 R0
SYMATTR InstName C3
SYMATTR Value 4.7µ
SYMBOL res -48 160 R90
WINDOW 0 0 56 VBottom 2
WINDOW 3 32 56 VTop 2
SYMATTR InstName R3
SYMATTR Value 100k
TEXT 456 496 Left 2 !.tran 1m startup
TEXT 144 -24 Bottom 2 ;LTM8073 - 60Vin, 3A Silent Switcher µModule Regulator\nCISPR 22 Class B Compliant Step-Down Regulator\nInput: 7V to 60V     Output: 5V @ 3A, Fsw=1.2MHz
TEXT -440 520 Left 2 ;Note:\n  A smaller SS capacitor is being used to reduce simulation time. See datasheet for typical values.\n  If the simulation model is not found please update with the "Sync Release" command from the "Tools" menu.\n  It remains the customer's responsibility to verify proper and reliable operation in the actual application.\n  Component substitution and printed circuit board layout may significantly affect circuit performance or reliability.\n  Contact your local sales representative for assistance. This circuit is distributed to customers only for use with LTC parts.\n  Copyright © 2017 Linear Technology Inc. All rights reserved.
