Version 4
SHEET 1 1464 708
WIRE 16 48 -80 48
WIRE 112 48 16 48
WIRE 288 48 112 48
WIRE -80 64 -80 48
WIRE 16 64 16 48
WIRE 288 64 288 48
WIRE 112 112 112 48
WIRE 128 112 112 112
WIRE -80 160 -80 144
WIRE 16 160 16 128
WIRE 480 192 448 192
WIRE 576 192 480 192
WIRE 48 208 32 208
WIRE 128 208 112 208
WIRE 480 208 480 192
WIRE 576 208 576 192
WIRE 128 304 112 304
WIRE 480 320 480 272
WIRE 480 320 448 320
WIRE 576 320 576 288
WIRE 576 320 480 320
WIRE 576 336 576 320
WIRE 32 400 16 400
WIRE 128 400 112 400
WIRE 288 464 288 448
FLAG -80 160 0
FLAG 32 208 0
FLAG 16 400 0
FLAG 288 464 0
FLAG 576 336 0
FLAG 576 192 OUT
FLAG -80 48 IN
FLAG 16 160 0
SYMBOL voltage -80 48 R0
WINDOW 123 0 0 Left 2
WINDOW 39 0 0 Left 2
SYMATTR InstName V1
SYMATTR Value 16
SYMBOL cap 112 192 R90
WINDOW 0 0 32 VBottom 2
WINDOW 3 32 32 VTop 2
SYMATTR InstName C1
SYMATTR Value 4.7µ
SYMBOL res 128 384 R90
WINDOW 0 0 56 VBottom 2
WINDOW 3 32 56 VTop 2
SYMATTR InstName R1
SYMATTR Value 7.15K
SYMBOL cap 464 208 R0
SYMATTR InstName C2
SYMATTR Value 22µ
SYMBOL res 560 192 R0
SYMATTR InstName Rload
SYMATTR Value 18
SYMBOL PowerProducts\\LTM8047 288 256 R0
SYMATTR InstName U1
SYMBOL cap 0 64 R0
SYMATTR InstName C3
SYMATTR Value 2.2µ
TEXT 528 416 Left 2 !.tran 1.5m startup
TEXT 352 32 Bottom 2 ;LTM8047 - 3.1Vin to 32Vin Isolated µModule DC/DC Converter\n725V DC Isolated Low Noise µModule Regulator\nInput: 3.1V to 29V    Output: 5V @ 280mA
TEXT -272 472 Left 2 ;Note:\n  If the simulation model is not found please update with the "Sync Release" command from the "Tools" menu.\n  It remains the customer's responsibility to verify proper and reliable operation in the actual application.\n  Component substitution and printed circuit board layout may significantly affect circuit performance or reliability.\n  Contact your local sales representative for assistance. This circuit is distributed to customers only for use with LTC parts.\n  Copyright © 2012 Linear Technology Inc. All rights reserved.
