Version 4
SHEET 1 1360 804
WIRE -128 -192 -224 -192
WIRE -32 -192 -128 -192
WIRE -16 -192 -32 -192
WIRE 464 -192 400 -192
WIRE 576 -192 464 -192
WIRE 656 -192 576 -192
WIRE 704 -192 656 -192
WIRE 816 -192 784 -192
WIRE 880 -192 816 -192
WIRE -224 -176 -224 -192
WIRE -128 -176 -128 -192
WIRE 576 -176 576 -192
WIRE 656 -176 656 -192
WIRE 880 -176 880 -192
WIRE -32 -96 -32 -192
WIRE -16 -96 -32 -96
WIRE 512 -96 400 -96
WIRE -224 -80 -224 -96
WIRE -128 -80 -128 -112
WIRE 576 -80 576 -112
WIRE 656 -80 656 -112
WIRE 880 -80 880 -96
WIRE 512 -48 512 -96
WIRE 816 -48 816 -192
WIRE 816 -48 512 -48
WIRE -32 0 -32 -96
WIRE -16 0 -32 0
WIRE 464 0 464 -112
WIRE 464 0 400 0
WIRE 464 16 464 0
WIRE -32 96 -32 0
WIRE -16 96 -32 96
WIRE 464 112 464 96
WIRE 432 192 400 192
WIRE -16 384 -32 384
WIRE -32 480 -32 384
WIRE -16 480 -32 480
WIRE 416 480 400 480
WIRE -112 576 -128 576
WIRE -16 576 -32 576
WIRE 416 576 400 576
FLAG -128 576 0
FLAG 416 480 0
FLAG -224 -80 0
FLAG 416 576 0
FLAG 464 112 0
FLAG 576 -80 0
FLAG 656 -80 0
FLAG 880 -80 0
FLAG 880 -192 OUT
FLAG -224 -192 IN
FLAG -128 -80 0
SYMBOL res -16 560 R90
WINDOW 0 0 56 VBottom 2
WINDOW 3 32 56 VTop 2
SYMATTR InstName R1
SYMATTR Value 36.5K
SYMBOL voltage -224 -192 R0
WINDOW 123 0 0 Left 2
WINDOW 39 0 0 Left 2
SYMATTR InstName V1
SYMATTR Value 12
SYMBOL res 448 -208 R0
SYMATTR InstName R2
SYMATTR Value 100K
SYMBOL res 448 0 R0
SYMATTR InstName R3
SYMATTR Value 11K
SYMBOL cap 560 -176 R0
SYMATTR InstName C1
SYMATTR Value 22µ
SYMATTR SpiceLine V=25 Irms=0 Rser=0.003 Lser=0 mfg="TDK" pn="C575OX5RIE226M" type="X5R"
SYMBOL polcap 640 -176 R0
WINDOW 3 24 56 Left 2
SYMATTR Value 68µ
SYMATTR InstName C2
SYMATTR Description Capacitor
SYMATTR Type cap
SYMATTR SpiceLine V=50 Irms=410m Rser=0.2 Lser=0 mfg="Nichicon" pn="UPL1H680MPH" type="Al electrolytic"
SYMBOL res 864 -192 R0
SYMATTR InstName Rload
SYMATTR Value 4
SYMBOL res 800 -208 R90
WINDOW 0 0 56 VBottom 2
WINDOW 3 32 56 VTop 2
SYMATTR InstName R4
SYMATTR Value 0.015
SYMBOL cap -144 -176 R0
WINDOW 3 35 31 Left 2
WINDOW 123 24 57 Left 2
SYMATTR Value 4.7µ
SYMATTR Value2 x2
SYMATTR InstName C3
SYMBOL PowerProducts\\LTM8054 192 192 R0
SYMATTR InstName U1
TEXT 576 560 Left 2 !.tran 1m startup
TEXT 336 -264 Bottom 2 ;LTM8054 - 36Vin, 5.4A Buck-Boost µModule Regulator\nHigh Efficiency Buck-Boost Regulator with Accurate Current Limit & Output Current Monitor\nInput: 6V to 35V       Output: 12V @ 3A with 12V Input, Fsw = 600kHz
TEXT -352 648 Left 2 ;Note:\n  If the simulation model is not found please update with the "Sync Release" command from the "Tools" menu.\n  It remains the customer's responsibility to verify proper and reliable operation in the actual application.\n  Component substitution and printed circuit board layout may significantly affect circuit performance or reliability.\n  Contact your local sales representative for assistance. This circuit is distributed to customers only for use with LTC parts.\n  Copyright © 2015 Linear Technology Inc. All rights reserved.
