Version 4
SHEET 1 1396 876
WIRE -256 32 -368 32
WIRE -144 32 -256 32
WIRE 80 32 -144 32
WIRE 768 32 400 32
WIRE 864 32 768 32
WIRE -368 48 -368 32
WIRE -256 48 -256 32
WIRE -144 48 -144 32
WIRE 768 48 768 32
WIRE 864 48 864 32
WIRE 80 128 -16 128
WIRE 448 128 400 128
WIRE 544 128 448 128
WIRE 640 128 544 128
WIRE -368 144 -368 128
WIRE -256 144 -256 112
WIRE -144 144 -144 128
WIRE -16 144 -16 128
WIRE -16 144 -144 144
WIRE 448 144 448 128
WIRE 544 144 544 128
WIRE 640 144 640 128
WIRE 768 144 768 112
WIRE 864 144 864 128
WIRE -144 160 -144 144
WIRE 0 224 -16 224
WIRE 80 224 64 224
WIRE 448 224 448 208
WIRE 448 224 400 224
WIRE 544 240 544 208
WIRE 640 240 640 224
WIRE -144 256 -144 240
WIRE 0 320 -32 320
WIRE 80 320 64 320
WIRE 416 320 400 320
WIRE 512 320 496 320
WIRE -16 416 -32 416
WIRE 80 416 64 416
WIRE 416 416 400 416
WIRE 240 480 240 464
FLAG -32 416 0
FLAG -368 144 0
FLAG 640 240 0
FLAG 544 240 0
FLAG -256 144 0
FLAG 640 128 OUT2
FLAG -368 32 IN
FLAG 512 320 0
FLAG 864 144 0
FLAG 768 144 0
FLAG 864 32 OUT1
FLAG -144 256 0
FLAG -16 224 0
FLAG -32 320 0
FLAG 240 480 0
FLAG 416 416 0
SYMBOL cap 528 144 R0
SYMATTR InstName C1
SYMATTR Value 10µ
SYMBOL cap -272 48 R0
SYMATTR InstName C2
SYMATTR Value 10µ
SYMBOL res 624 128 R0
SYMATTR InstName Rload2
SYMATTR Value 50
SYMBOL voltage -368 32 R0
WINDOW 123 0 0 Left 2
WINDOW 39 0 0 Left 2
SYMATTR InstName V1
SYMATTR Value 12
SYMBOL res 400 336 R270
WINDOW 0 32 56 VTop 2
WINDOW 3 0 56 VBottom 2
SYMATTR InstName R1
SYMATTR Value 162K
SYMBOL PowerProducts\\LTM8048 240 224 R0
SYMATTR InstName U1
SYMBOL res 80 400 R90
WINDOW 0 0 56 VBottom 2
WINDOW 3 32 56 VTop 2
SYMATTR InstName R2
SYMATTR Value 6.04K
SYMBOL cap 432 144 R0
SYMATTR InstName C3
SYMATTR Value 0.47n
SYMBOL cap 752 48 R0
SYMATTR InstName C4
SYMATTR Value 22µ
SYMBOL res 848 32 R0
SYMATTR InstName Rload1
SYMATTR Value 60
SYMBOL res -160 32 R0
SYMATTR InstName R3
SYMATTR Value 200K
SYMBOL res -160 144 R0
SYMATTR InstName R4
SYMATTR Value 90.9K
SYMBOL cap 64 208 R90
WINDOW 0 0 32 VBottom 2
WINDOW 3 32 32 VTop 2
SYMATTR InstName C5
SYMATTR Value 4.7µ
SYMBOL cap 64 304 R90
WINDOW 0 0 32 VBottom 2
WINDOW 3 32 32 VTop 2
SYMATTR InstName C6
SYMATTR Value 10p
TEXT 632 384 Left 2 !.tran 4m startup
TEXT 248 -8 Bottom 2 ;LTM8048 - Isolated µModule DC/DC Converter with LDO Regulator\nInput: 4V to 30V      Outputs: 6V@100mA and 5V@100mA
TEXT -416 488 Left 2 ;Note:\n  If the simulation model is not found please update with the "Sync Release" command from the "Tools" menu.\n  It remains the customer's responsibility to verify proper and reliable operation in the actual application.\n  Component substitution and printed circuit board layout may significantly affect circuit performance or reliability.\n  Contact your local sales representative for assistance. This circuit is distributed to customers only for use with LTC parts.\n  Copyright © 2012 Linear Technology Inc. All rights reserved.
