Version 4
SHEET 1 1520 680
WIRE -80 -64 -192 -64
WIRE 0 -64 -80 -64
WIRE 192 -64 0 -64
WIRE -192 -48 -192 -64
WIRE -80 -48 -80 -64
WIRE 192 -32 192 -64
WIRE 0 0 0 -64
WIRE 32 0 0 0
WIRE 464 0 352 0
WIRE -192 48 -192 32
WIRE -80 48 -80 16
WIRE 32 80 16 80
WIRE 464 80 464 0
WIRE 464 80 352 80
WIRE 512 80 464 80
WIRE 608 80 512 80
WIRE 512 96 512 80
WIRE 608 96 608 80
WIRE -64 160 -80 160
WIRE 32 160 0 160
WIRE 368 160 352 160
WIRE 464 160 464 80
WIRE 464 160 448 160
WIRE 512 192 512 160
WIRE 608 192 608 176
WIRE -64 256 -80 256
WIRE 32 256 16 256
WIRE 368 256 352 256
WIRE 464 256 448 256
WIRE 192 320 192 304
FLAG -192 48 0
FLAG -80 256 0
FLAG 192 320 0
FLAG 608 192 0
FLAG -192 -64 IN
FLAG 608 80 OUT
FLAG 512 192 0
FLAG 16 80 0
FLAG -80 160 0
FLAG 464 256 0
FLAG -80 48 0
SYMBOL voltage -192 -64 R0
WINDOW 123 0 0 Left 2
WINDOW 39 0 0 Left 2
SYMATTR InstName V1
SYMATTR Value 12
SYMBOL res 32 240 R90
WINDOW 0 0 56 VBottom 2
WINDOW 3 32 56 VTop 2
SYMATTR InstName R1
SYMATTR Value 18.2K
SYMBOL res 592 80 R0
SYMATTR InstName Rload
SYMATTR Value 1.3
SYMBOL cap 496 96 R0
SYMATTR InstName C1
SYMATTR Value 47µ
SYMBOL res 464 240 R90
WINDOW 0 0 56 VBottom 2
WINDOW 3 32 56 VTop 2
SYMATTR InstName R2
SYMATTR Value 24.3K
SYMBOL cap 0 144 R90
WINDOW 0 0 32 VBottom 2
WINDOW 3 32 32 VTop 2
SYMATTR InstName C2
SYMATTR Value .01µ
SYMBOL LTM8003 192 144 R0
SYMATTR InstName U1
SYMBOL res 464 144 R90
WINDOW 0 0 56 VBottom 2
WINDOW 3 32 56 VTop 2
SYMATTR InstName R3
SYMATTR Value 100K
SYMBOL cap -96 -48 R0
SYMATTR InstName C3
SYMATTR Value 4.7µ
TEXT 520 296 Left 2 !.tran 15m startup
TEXT 176 -88 Bottom 2 ;LTM8003 - 40Vin, 3.5A Step-Down µModule Regulator\nLow EMI Buck µModule Regulator\nInput: 6.0V to 40V       Output: 5V @  3.5A, Fsw = 2MHz
TEXT -432 336 Left 2 ;Note:\n  If the simulation model is not found please update with the "Sync Release" command from the "Tools" menu.\n  It remains the customer's responsibility to verify proper and reliable operation in the actual application.\n  Component substitution and printed circuit board layout may significantly affect circuit performance or reliability.\n  Contact your local sales representative for assistance. This circuit is distributed to customers only for use with LTC parts.\n  Copyright © 2016 Linear Technology Inc. All rights reserved.
