Version 4
SHEET 1 1596 884
WIRE 80 -64 -32 -64
WIRE 384 -64 368 -64
WIRE 480 -64 384 -64
WIRE -32 -48 -32 -64
WIRE 480 -16 480 -64
WIRE 80 32 64 32
WIRE 384 32 384 -64
WIRE 384 32 368 32
WIRE -32 48 -32 32
WIRE 480 112 480 48
WIRE 64 128 64 32
WIRE 80 128 64 128
WIRE 0 224 -16 224
WIRE 64 224 64 128
WIRE 80 224 64 224
WIRE 480 224 480 192
WIRE 80 320 32 320
WIRE 80 416 32 416
FLAG 32 416 0
FLAG -32 48 0
FLAG -32 -64 IN
FLAG -16 224 0
FLAG 480 -64 OUT
FLAG 480 224 0
FLAG 32 320 0
SYMBOL voltage -32 -64 R0
WINDOW 123 0 0 Left 2
WINDOW 39 0 0 Left 2
SYMATTR InstName V1
SYMATTR Value 12
SYMBOL PowerProducts\\LTM8061-4.1 224 176 R0
SYMATTR InstName U1
SYMBOL cap 64 208 R90
WINDOW 0 0 32 VBottom 2
WINDOW 3 32 32 VTop 2
SYMATTR InstName C3
SYMATTR Value 4.7µ
SYMBOL voltage 480 96 R0
WINDOW 3 35 60 Left 2
WINDOW 123 24 138 Left 2
WINDOW 39 18 97 Left 2
SYMATTR Value 2.7
SYMATTR SpiceLine Rser=.01
SYMATTR InstName V2
SYMBOL cap 464 -16 R0
WINDOW 3 45 40 Left 2
WINDOW 39 20 70 Left 2
WINDOW 40 24 98 Left 2
WINDOW 0 42 8 Left 2
SYMATTR Value 0.5m
SYMATTR SpiceLine Rser=.01
SYMATTR InstName C2
TEXT 416 448 Left 2 !.tran 1m startup
TEXT 216 -128 Bottom 2 ;LTM8061 - 32Vin, 2A µModule Battery Charger\n2A LiFePO4 µModule Battery Charger\nInput: 6.5V to 32V     Output: 4.1V @ 2A, C/10 Termination
TEXT 568 -24 Bottom 3 ;BATTERY
TEXT -368 472 Left 2 ;Note:\n  If the simulation model is not found please update with the "Sync Release" command from the "Tools" menu.\n  It remains the customer's responsibility to verify proper and reliable operation in the actual application.\n  Component substitution and printed circuit board layout may significantly affect circuit performance or reliability.\n  Contact your local sales representative for assistance. This circuit is distributed to customers only for use with LTC parts.\n  Copyright © 2013 Linear Technology Inc. All rights reserved.
RECTANGLE Normal 656 256 432 -96 2
