Version 4
SHEET 1 1348 736
WIRE -96 -128 -112 -128
WIRE -16 -128 -96 -128
WIRE 80 -128 -16 -128
WIRE 240 -128 80 -128
WIRE -112 -112 -112 -128
WIRE -16 -112 -16 -128
WIRE 240 -112 240 -128
WIRE 80 -48 80 -128
WIRE 96 -48 80 -48
WIRE 544 -48 384 -48
WIRE 640 -48 544 -48
WIRE 736 -48 640 -48
WIRE 544 -32 544 -48
WIRE 640 -32 640 -48
WIRE 736 -32 736 -48
WIRE -112 -16 -112 -32
WIRE -16 -16 -16 -48
WIRE 96 48 80 48
WIRE 400 48 384 48
WIRE 496 48 480 48
WIRE 544 64 544 32
WIRE 640 64 640 32
WIRE 736 64 736 48
WIRE 80 144 80 48
WIRE 96 144 80 144
WIRE 80 240 80 144
WIRE 96 240 80 240
WIRE 400 336 384 336
WIRE 0 432 -16 432
WIRE 96 432 80 432
WIRE 400 432 384 432
FLAG -112 -16 0
FLAG -16 432 0
FLAG 544 64 0
FLAG 640 64 0
FLAG 496 48 0
FLAG 400 432 0
FLAG 736 64 0
FLAG -96 -128 IN
FLAG 736 -48 OUT
FLAG -16 -16 0
FLAG 400 336 0
SYMBOL PowerProducts\\LTM8064 240 192 R0
SYMATTR InstName U1
SYMBOL VOLTAGE -112 -128 R0
WINDOW 123 0 0 Left 2
WINDOW 39 0 0 Left 2
SYMATTR InstName V1
SYMATTR Value 24
SYMBOL res 96 416 R90
WINDOW 0 0 56 VBottom 2
WINDOW 3 32 56 VTop 2
SYMATTR InstName R1
SYMATTR Value 130K
SYMBOL cap 528 -32 R0
SYMATTR InstName C1
SYMATTR Value 100µ
SYMATTR SpiceLine V=6.3 Rser=5m
SYMBOL cap 624 -32 R0
SYMATTR InstName C2
SYMATTR Value 330µ
SYMATTR SpiceLine V=10 Rser=35m
SYMBOL res 384 64 R270
WINDOW 0 32 56 VTop 2
WINDOW 3 0 56 VBottom 2
SYMATTR InstName R2
SYMATTR Value 5.11K
SYMBOL res 720 -48 R0
SYMATTR InstName R3
SYMATTR Value .833
SYMBOL cap -32 -112 R0
WINDOW 3 37 35 Left 2
WINDOW 123 23 60 Left 2
SYMATTR Value 4.7µ
SYMATTR Value2 x2
SYMATTR InstName C3
SYMATTR SpiceLine V=100 Rser=10m
TEXT 496 440 Left 2 !.tran 2.5m startup
TEXT 256 -152 Bottom 2 ;LTM8064 - 58Vin, 6A CVCC Step-Down uModule Regulator\nCVCC Source/Sink Step-Down Regulator\nInput: 7.5V to 58V     Output: 5V @ ±6A, Fsw = 325kHz
TEXT -368 496 Left 2 ;Note:\n  If the simulation model is not found please update with the "Sync Release" command from the "Tools" menu.\n  It remains the customer's responsibility to verify proper and reliable operation in the actual application.\n  Component substitution and printed circuit board layout may significantly affect circuit performance or reliability.\n  Contact your local sales representative for assistance. This circuit is distributed to customers only for use with LTC parts.\n  Copyright © 2016 Linear Technology Inc. All rights reserved.
