Version 4
SHEET 1 1108 680
WIRE 0 32 -96 32
WIRE 80 32 0 32
WIRE 240 32 80 32
WIRE -96 48 -96 32
WIRE 0 64 0 32
WIRE 240 64 240 32
WIRE 80 128 80 32
WIRE 96 128 80 128
WIRE 416 128 384 128
WIRE 464 128 416 128
WIRE 576 128 464 128
WIRE -96 144 -96 128
WIRE -64 144 -64 128
WIRE 0 144 0 128
WIRE 464 144 464 128
WIRE 576 144 576 128
WIRE 464 240 464 208
WIRE 576 240 576 224
WIRE 0 256 -16 256
WIRE 96 256 80 256
WIRE 416 256 416 128
WIRE 416 256 384 256
WIRE 240 336 240 320
FLAG -96 144 0
FLAG 240 336 0
FLAG 576 240 0
FLAG -16 256 0
FLAG -96 32 IN
FLAG 576 128 OUT
FLAG 464 240 0
FLAG 0 144 0
SYMBOL PowerProducts\\LTM8020 240 192 R0
SYMATTR InstName U1
SYMBOL voltage -96 32 R0
WINDOW 0 28 22 Left 0
WINDOW 123 0 0 Left 0
WINDOW 39 0 0 Left 0
SYMATTR InstName V1
SYMATTR Value 12
SYMBOL res 96 240 R90
WINDOW 0 0 56 VBottom 0
WINDOW 3 32 56 VTop 0
SYMATTR InstName R1
SYMATTR Value 301K
SYMBOL cap 448 144 R0
SYMATTR InstName C1
SYMATTR Value 10µ
SYMBOL cap -16 64 R0
SYMATTR Value 1µ
SYMATTR InstName C2
SYMBOL res 560 128 R0
SYMATTR InstName Rload
SYMATTR Value 16.5
TEXT 424 320 Left 0 !.tran 750u startup
TEXT 264 0 Bottom 0 ;LTM8020 - 200mA 36V DC/DC Step-Down Converter µModule in LGA package\nInput: 5V to 36V       Output: 3.3V @ 200mA
TEXT -352 352 Left 0 ;Note:\n  If the simulation model is not found please update with the "Sync Release" command from the "Tools" menu.\n  It remains the customer's responsibility to verify proper and reliable operation in the actual application.\n  Component substitution and printed circuit board layout may significantly affect circuit performance or reliability.\n  Contact your local sales representative for assistance. This circuit is distributed to customers only for use with LTC parts.\n  Copyright © 2008 Linear Technology Inc. All rights reserved.
