Version 4
SHEET 1 1360 868
WIRE -112 0 -224 0
WIRE -32 0 -112 0
WIRE 112 0 -32 0
WIRE 416 0 400 0
WIRE 464 0 416 0
WIRE 544 0 464 0
WIRE 624 0 544 0
WIRE 720 0 624 0
WIRE -224 16 -224 0
WIRE 464 16 464 0
WIRE 544 16 544 0
WIRE 624 16 624 0
WIRE 720 16 720 0
WIRE -112 32 -112 0
WIRE -32 96 -32 0
WIRE 0 96 -32 96
WIRE 112 96 80 96
WIRE 416 96 416 0
WIRE 416 96 400 96
WIRE -224 112 -224 96
WIRE -112 112 -112 96
WIRE 464 112 464 80
WIRE 544 112 544 80
WIRE 624 112 624 80
WIRE 720 112 720 96
WIRE 112 192 -32 192
WIRE 464 192 400 192
WIRE 560 192 464 192
WIRE 464 208 464 192
WIRE 560 208 560 192
WIRE -32 288 -32 192
WIRE 112 288 -32 288
WIRE 464 288 464 272
WIRE 560 288 560 272
WIRE -32 384 -32 288
WIRE 112 384 -32 384
WIRE 448 384 400 384
WIRE 576 384 528 384
WIRE -32 480 -32 384
WIRE 112 480 -32 480
WIRE 32 576 0 576
WIRE 112 576 96 576
WIRE 416 576 400 576
WIRE 512 576 496 576
WIRE 256 656 256 640
WIRE -32 688 -32 480
WIRE 576 688 576 384
WIRE 576 688 -32 688
FLAG 256 656 0
FLAG 512 576 0
FLAG 0 576 0
FLAG -224 112 0
FLAG 720 112 0
FLAG 464 288 0
FLAG -224 0 IN
FLAG 720 0 OUT
FLAG 464 112 0
FLAG 544 112 0
FLAG 624 112 0
FLAG 560 288 0
FLAG -112 112 0
SYMBOL PowerProducts\\LTM8028 256 288 R0
SYMATTR InstName U1
SYMBOL res 400 592 R270
WINDOW 0 32 56 VTop 2
WINDOW 3 0 56 VBottom 2
SYMATTR InstName R1
SYMATTR Value 165K
SYMBOL cap 96 560 R90
WINDOW 0 0 32 VBottom 2
WINDOW 3 32 32 VTop 2
SYMATTR InstName C1
SYMATTR Value .01µ
SYMBOL voltage -224 0 R0
WINDOW 123 0 0 Left 2
WINDOW 39 0 0 Left 2
SYMATTR InstName V1
SYMATTR Value 12
SYMBOL res -16 112 R270
WINDOW 0 32 56 VTop 2
WINDOW 3 0 56 VBottom 2
SYMATTR InstName R2
SYMATTR Value 402K
SYMBOL res 704 0 R0
SYMATTR InstName Rload
SYMATTR Value 0.36
SYMBOL cap -128 32 R0
SYMATTR InstName C4
SYMATTR Value 10µ
SYMBOL cap 448 16 R0
SYMATTR InstName C2
SYMATTR Value 22µ
SYMATTR SpiceLine Rser=5m
SYMBOL cap 528 16 R0
SYMATTR InstName C5
SYMATTR Value 10µ
SYMBOL cap 608 16 R0
SYMATTR InstName C6
SYMATTR Value 4.7µ
SYMBOL cap 448 208 R0
SYMATTR InstName C3
SYMATTR Value 100µ
SYMATTR SpiceLine Rser=3m
SYMBOL polcap 544 208 R0
SYMATTR InstName C7
SYMATTR Value 470µ
SYMATTR SpiceLine V=4 Rser=10m
SYMBOL res 544 368 R90
WINDOW 0 0 56 VBottom 2
WINDOW 3 32 56 VTop 2
SYMATTR InstName R3
SYMATTR Value 100K
TEXT 712 632 Left 2 !.tran 3m startup
TEXT 264 -80 Bottom 2 ;LTM8028 - 36Vin, UltraFast, Low Output Noise 5A µModule Regulator\nLow Output Noise, 1.8V, 5A Buck Regulator\nInput: 6V to 36V       Output: 1.8V @ 5A, Fsw = 250kHz
TEXT -320 680 Left 2 ;Note:\n  If the simulation model is not found please update with the "Sync Release" command from the "Tools" menu.\n  It remains the customer's responsibility to verify proper and reliable operation in the actual application.\n  Component substitution and printed circuit board layout may significantly affect circuit performance or reliability.\n  Contact your local sales representative for assistance. This circuit is distributed to customers only for use with LTC parts.\n  Copyright © 2013 Linear Technology Inc. All rights reserved.
