Version 4
SHEET 1 1464 692
WIRE -112 -48 -208 -48
WIRE -48 -48 -112 -48
WIRE 208 -48 -48 -48
WIRE -208 -32 -208 -48
WIRE -112 -32 -112 -48
WIRE 208 -32 208 -48
WIRE -48 32 -48 -48
WIRE -32 32 -48 32
WIRE 64 32 48 32
WIRE 432 32 352 32
WIRE 528 32 432 32
WIRE 432 48 432 32
WIRE 528 48 528 32
WIRE -208 64 -208 48
WIRE -112 64 -112 32
WIRE 64 128 48 128
WIRE 368 128 352 128
WIRE 432 144 432 112
WIRE 528 144 528 112
WIRE 48 224 48 128
WIRE 64 224 48 224
WIRE 368 224 352 224
WIRE 464 224 448 224
WIRE 528 224 528 208
WIRE 48 320 48 224
WIRE 64 320 48 320
WIRE 368 320 352 320
WIRE 64 416 48 416
WIRE 368 416 352 416
WIRE 464 416 448 416
WIRE 208 496 208 480
FLAG 208 496 0
FLAG -208 64 0
FLAG -208 -48 IN
FLAG 464 416 0
FLAG 464 224 0
FLAG 528 32 OUT
FLAG 432 144 0
FLAG -112 64 0
FLAG 528 224 0
SYMBOL voltage -208 -48 R0
SYMATTR InstName V1
SYMATTR Value 24
SYMBOL res -48 48 R270
WINDOW 0 32 56 VTop 2
WINDOW 3 0 56 VBottom 2
SYMATTR InstName R1
SYMATTR Value 510K
SYMBOL res 352 432 R270
WINDOW 0 32 56 VTop 2
WINDOW 3 0 56 VBottom 2
SYMATTR InstName R2
SYMATTR Value 68.1K
SYMBOL res 352 240 R270
WINDOW 0 32 56 VTop 2
WINDOW 3 0 56 VBottom 2
SYMATTR InstName R3
SYMATTR Value 3.09K
SYMBOL PowerProducts\\LTM8026 208 224 R0
SYMATTR InstName U1
SYMBOL cap 416 48 R0
WINDOW 3 24 64 Left 2
SYMATTR Value 47µ
SYMATTR InstName C2
SYMBOL cap -128 -32 R0
SYMATTR InstName C1
SYMATTR Value 10µ
SYMBOL cap 512 48 R0
SYMATTR InstName C3
SYMATTR Value 2.2m
SYMBOL cap 512 144 R0
SYMATTR InstName C4
SYMATTR Value 2.2m
TEXT 496 464 Left 2 !.tran 2m startup
TEXT 216 -56 Bottom 2 ;LTM8026 - 36Vin, 5A CVCC Step-Down µModule Regulator\n36Vin, 5.6A Two 2.5V Series Supercapacitor Charger\nInput: 7V to 36V     Output: 5V @ 5.6A
TEXT -328 504 Left 2 ;Notes: \n  If the simulation model is not found please update with the "Sync Release" command from the "Tools" menu.\n  It remains the customer's responsibility to verify proper and reliable operation in the actual application.\n  Component substitution and printed circuit board layout may significantly affect circuit performance or reliability.\n  Contact your local sales representative for assistance. This circuit is distributed to customers only for use with LTC parts.\n  Copyright © 2012 Linear Technology Inc.  All rights reserved.
TEXT 512 264 Left 1 ;Two 2.5V, 2.2Farad SuperCaps\n(Substituted 2.2mF to speed up simulations)
