Version 4
SHEET 1 1456 680
WIRE -16 48 -112 48
WIRE 64 48 -16 48
WIRE 80 48 64 48
WIRE 384 48 304 48
WIRE 496 48 384 48
WIRE -112 64 -112 48
WIRE -16 64 -16 48
WIRE 384 64 384 48
WIRE 496 64 496 48
WIRE 64 144 64 48
WIRE 80 144 64 144
WIRE 320 144 304 144
WIRE -112 160 -112 144
WIRE -16 160 -16 128
WIRE 384 160 384 128
WIRE 496 160 496 144
WIRE 80 240 64 240
WIRE 320 240 304 240
WIRE 416 240 400 240
FLAG 64 240 0
FLAG -112 160 0
FLAG 416 240 0
FLAG -112 48 IN
FLAG 496 48 OUT
FLAG 384 160 0
FLAG 496 160 0
FLAG 320 144 0
FLAG -16 160 0
SYMBOL voltage -112 48 R0
WINDOW 123 0 0 Left 2
WINDOW 39 0 0 Left 2
SYMATTR InstName V1
SYMATTR Value 24
SYMBOL cap 368 64 R0
SYMATTR InstName C2
SYMATTR Value 22µ
SYMATTR SpiceLine Rser=10m
SYMBOL res 304 256 R270
WINDOW 0 32 56 VTop 2
WINDOW 3 0 56 VBottom 2
SYMATTR InstName R2
SYMATTR Value 8.06K
SYMBOL res 480 48 R0
SYMATTR InstName Rload
SYMATTR Value 12
SYMBOL PowerProducts\\LTM8067 192 144 R0
SYMATTR InstName U1
SYMBOL cap -32 64 R0
SYMATTR InstName C1
SYMATTR Value 2.2µ
TEXT 472 264 Left 2 !.tran 10m startup
TEXT 232 -8 Bottom 2 ;LTM8067 - 2.8Vin to 40Vin Isolated µModule DC/DC Converter\n2kVAC Isolated µModule Regulator\nInput: 4.5V to 40V       Output: 5V @ 500mA
TEXT -328 288 Left 2 ;Note:\n  If the simulation model is not found please update with the "Sync Release" command from the "Tools" menu.\n  It remains the customer's responsibility to verify proper and reliable operation in the actual application.\n  Component substitution and printed circuit board layout may significantly affect circuit performance or reliability.\n  Contact your local sales representative for assistance. This circuit is distributed to customers only for use with LTC parts.\n  Copyright © 2016 Linear Technology Inc. All rights reserved.
