Version 4
SHEET 1 1852 804
WIRE 624 -192 528 -192
WIRE 848 -192 624 -192
WIRE 528 -176 528 -192
WIRE 624 -176 624 -192
WIRE 848 -128 848 -192
WIRE 528 -80 528 -96
WIRE 624 -80 624 -96
WIRE 720 -80 624 -80
WIRE 1072 -80 976 -80
WIRE 1184 -80 1072 -80
WIRE 1072 -64 1072 -80
WIRE 1184 -64 1184 -80
WIRE 640 16 608 16
WIRE 720 16 704 16
WIRE 1008 16 976 16
WIRE 1072 32 1072 0
WIRE 1184 32 1184 16
WIRE 624 112 608 112
WIRE 720 112 704 112
WIRE 1008 112 1008 16
WIRE 1008 112 976 112
WIRE 624 208 608 208
WIRE 720 208 704 208
WIRE 1008 208 1008 112
WIRE 1008 208 976 208
WIRE 848 272 848 256
FLAG 1072 32 0
FLAG 1184 32 0
FLAG 528 -80 0
FLAG 1184 -80 OUT
FLAG 528 -192 IN
FLAG 608 16 0
FLAG 608 112 0
FLAG 848 272 0
FLAG 608 208 0
SYMBOL res 608 -192 R0
SYMATTR InstName R1
SYMATTR Value 1Meg
SYMBOL res 720 96 R90
WINDOW 0 0 56 VBottom 0
WINDOW 3 32 56 VTop 0
SYMATTR InstName R2
SYMATTR Value 48.7K
SYMBOL cap 704 0 R90
WINDOW 0 0 32 VBottom 0
WINDOW 3 32 32 VTop 0
SYMATTR InstName C1
SYMATTR Value 1000p
SYMBOL cap 1056 -64 R0
WINDOW 3 38 36 Left 0
WINDOW 123 28 67 Left 0
SYMATTR Value 33µ
SYMATTR Value2 x3
SYMATTR InstName C2
SYMBOL voltage 528 -192 R0
WINDOW 3 25 101 Left 0
SYMATTR Value 24
SYMATTR InstName V1
SYMBOL PowerProducts\\LTM8027 848 64 R0
SYMATTR InstName U1
SYMBOL res 720 192 R90
WINDOW 0 0 56 VBottom 0
WINDOW 3 32 56 VTop 0
SYMATTR InstName R3
SYMATTR Value 56.2K
SYMBOL res 1168 -80 R0
SYMATTR InstName Rload
SYMATTR Value 3
TEXT 1104 176 Left 0 !.tran 1m startup
TEXT 256 288 Left 0 ;Note:\n  If the simulation model is not found please update with the "Sync Release" command from the "Tools" menu.\n  It remains the customer's responsibility to verify proper and reliable operation in the actual application.\n  Component substitution and printed circuit board layout may significantly affect circuit performance or reliability.\n  Contact your local sales representative for assistance. This circuit is distributed to customers only for use with LTC parts.\n  Copyright © 2010 Linear Technology Inc. All rights reserved.
TEXT 872 -208 Bottom 0 ;LTM8027, 60V, 4A DC/DC µModule Regulator\nInput: 24V       Output: 12V @ 4A
