Version 4
SHEET 1 888 680
WIRE 80 -368 -192 -368
WIRE 432 -368 368 -368
WIRE -192 -320 -192 -368
WIRE -48 -304 -80 -304
WIRE 80 -304 32 -304
WIRE 496 -304 368 -304
WIRE -192 -240 -192 -256
WIRE 80 -240 -192 -240
WIRE 496 -240 496 -304
WIRE 496 -240 368 -240
WIRE 80 -176 -16 -176
WIRE 496 -176 496 -240
WIRE 496 -176 368 -176
WIRE 576 -176 496 -176
WIRE 80 -112 -16 -112
WIRE 496 -112 496 -176
WIRE 496 -112 368 -112
WIRE -80 -48 -80 -304
WIRE 80 -48 -80 -48
WIRE 496 -48 496 -112
WIRE 496 -48 368 -48
WIRE 80 16 0 16
WIRE 496 16 368 16
WIRE 640 16 576 16
WIRE -192 80 -240 80
WIRE 80 80 -112 80
WIRE 432 80 368 80
FLAG 432 -368 VCC
FLAG 432 80 R
IOPIN 432 80 Out
FLAG 0 16 T
IOPIN 0 16 Out
FLAG 576 -176 0
FLAG -240 80 0
FLAG 640 16 0
SYMBOL polcap -208 -320 R0
WINDOW 3 24 56 Left 2
SYMATTR Value 1µ
SYMATTR InstName C1
SYMATTR Description Capacitor
SYMATTR Type cap
SYMATTR SpiceLine V=16 Irms=0 Rser=11 Lser=0 mfg="AVX" pn="TAJA105K016" type="Tantalum"
SYMBOL polcap -32 -176 R0
WINDOW 3 24 56 Left 2
SYMATTR Value 1µ
SYMATTR InstName C2
SYMATTR Description Capacitor
SYMATTR Type cap
SYMATTR SpiceLine V=16 Irms=0 Rser=11 Lser=0 mfg="AVX" pn="TAJA105K016" type="Tantalum"
SYMBOL Misc\\MAX232N 224 -272 R0
SYMATTR InstName U1
SYMBOL Misc\\battery 48 -304 R90
WINDOW 123 0 0 Left 0
WINDOW 39 0 0 Left 0
SYMATTR InstName V1
SYMATTR Value 12
SYMBOL Misc\\battery -96 80 R90
WINDOW 0 -32 56 VBottom 2
WINDOW 3 32 56 VTop 2
WINDOW 123 0 0 Left 0
WINDOW 39 0 0 Left 0
SYMATTR InstName V2
SYMATTR Value 12
SYMBOL voltage 480 16 R270
WINDOW 0 32 56 VTop 2
WINDOW 3 -32 56 VBottom 2
SYMATTR InstName V3
