Version 4
SHEET 1 952 1200
WIRE 384 -96 384 -192
WIRE 704 -96 704 -192
WIRE 784 -96 704 -96
WIRE 448 -32 448 -192
WIRE 448 -32 336 -32
WIRE 272 16 96 16
WIRE 512 16 512 -192
WIRE 512 16 464 16
WIRE 576 32 576 -192
WIRE 592 32 576 32
WIRE 208 64 48 64
WIRE 640 64 640 -192
WIRE 720 64 640 64
WIRE 208 96 208 64
WIRE 272 96 272 16
WIRE 336 96 336 -32
WIRE 464 96 464 16
WIRE 592 96 592 32
WIRE 720 96 720 64
WIRE 784 96 784 -96
WIRE 48 176 48 64
WIRE 48 176 -32 176
WIRE 96 224 96 16
WIRE 96 224 -32 224
WIRE 96 288 -32 288
WIRE 32 352 -32 352
WIRE 784 416 784 384
WIRE 32 432 32 352
WIRE 96 432 96 288
WIRE 208 432 208 384
WIRE 208 432 96 432
WIRE 528 496 528 384
WIRE 576 496 528 496
WIRE 720 496 720 384
WIRE 896 496 720 496
WIRE 400 512 400 384
WIRE 416 512 400 512
WIRE 656 544 656 384
WIRE 736 544 656 544
WIRE 176 560 -64 560
WIRE 320 560 176 560
WIRE 480 560 320 560
WIRE 640 560 480 560
WIRE 800 560 640 560
WIRE 176 624 176 560
WIRE 272 624 272 384
WIRE 320 624 320 560
WIRE 416 624 416 512
WIRE 480 624 480 560
WIRE 576 624 576 496
WIRE 640 624 640 560
WIRE 736 624 736 544
WIRE 800 624 800 560
WIRE 896 624 896 496
WIRE 224 736 224 688
WIRE 224 736 192 736
WIRE 368 736 368 688
WIRE 368 736 352 736
WIRE 528 736 528 688
WIRE 528 736 512 736
WIRE 688 736 688 688
WIRE 688 736 672 736
WIRE 848 736 848 688
WIRE 848 736 816 736
WIRE 224 832 224 736
WIRE 368 832 368 736
WIRE 528 832 528 736
WIRE 688 832 688 736
WIRE 848 832 848 736
WIRE 368 960 368 912
WIRE 496 960 368 960
WIRE 688 960 688 912
WIRE 688 960 560 960
WIRE 224 992 224 912
WIRE 464 992 224 992
WIRE 848 992 848 912
WIRE 848 992 592 992
WIRE 48 1024 48 688
WIRE 432 1024 48 1024
WIRE 432 1088 432 1024
WIRE 464 1088 464 992
WIRE 496 1088 496 960
WIRE 528 1088 528 912
WIRE 560 1088 560 960
WIRE 592 1088 592 992
FLAG 128 736 0
FLAG 288 736 0
FLAG 448 736 0
FLAG 608 736 0
FLAG 752 736 0
FLAG 784 416 0
FLAG -64 560 5V
FLAG 32 432 0
FLAG 48 688 0
FLAG 432 1088 GND
IOPIN 432 1088 In
FLAG 464 1088 S1
IOPIN 464 1088 In
FLAG 496 1088 S2
IOPIN 496 1088 In
FLAG 528 1088 S3
IOPIN 528 1088 In
FLAG 560 1088 S4
IOPIN 560 1088 In
FLAG 592 1088 S5
IOPIN 592 1088 In
FLAG 384 -96 0
FLAG 384 -192 GND
IOPIN 384 -192 Out
FLAG 448 -192 F1
IOPIN 448 -192 Out
FLAG 512 -192 F2
IOPIN 512 -192 Out
FLAG 576 -192 F3
IOPIN 576 -192 Out
FLAG 640 -192 F4
IOPIN 640 -192 Out
FLAG 704 -192 F5
IOPIN 704 -192 Out
FLAG -32 176 Vcc
IOPIN -32 176 In
FLAG -32 352 GND
IOPIN -32 352 In
FLAG -32 224 OS2
IOPIN -32 224 In
FLAG -32 288 OE1
IOPIN -32 288 In
SYMBOL Misc\\SN54HCT541 304 240 R270
SYMATTR InstName U3
SYMBOL res 208 816 R0
SYMATTR InstName R1
SYMATTR Value 1K
SYMATTR SpiceLine tol=1 pwr=0.1
SYMBOL res 352 816 R0
SYMATTR InstName R2
SYMATTR Value 1K
SYMATTR SpiceLine tol=1 pwr=0.1
SYMBOL res 512 816 R0
SYMATTR InstName R3
SYMATTR Value 1K
SYMATTR SpiceLine tol=1 pwr=0.1
SYMBOL res 672 816 R0
SYMATTR InstName R4
SYMATTR Value 1K
SYMATTR SpiceLine tol=1 pwr=0.1
SYMBOL res 832 816 R0
SYMATTR InstName R5
SYMATTR Value 1K
SYMATTR SpiceLine tol=1 pwr=0.1
SYMBOL LED 192 720 R90
WINDOW 0 0 32 VBottom 2
WINDOW 3 72 32 VTop 2
SYMATTR InstName D1
SYMBOL LED 352 720 R90
WINDOW 0 0 32 VBottom 2
WINDOW 3 72 32 VTop 2
SYMATTR InstName D2
SYMBOL LED 512 720 R90
WINDOW 0 0 32 VBottom 2
WINDOW 3 72 32 VTop 2
SYMATTR InstName D3
SYMBOL LED 672 720 R90
WINDOW 0 0 32 VBottom 2
WINDOW 3 72 32 VTop 2
SYMATTR InstName D4
SYMBOL LED 816 720 R90
WINDOW 0 0 32 VBottom 2
WINDOW 3 72 32 VTop 2
SYMATTR InstName D5
SYMBOL npn2 176 688 R270
SYMATTR InstName Q1
SYMBOL npn2 320 688 R270
SYMATTR InstName Q2
SYMBOL npn2 480 688 R270
SYMATTR InstName Q3
SYMBOL npn2 640 688 R270
SYMATTR InstName Q4
SYMBOL npn2 800 688 R270
SYMATTR InstName Q5
